* NGSPICE file created from SSTL.ext - technology: sky130A

.subckt n-leg_ctrl_fet_2 a_n125_n65# a_n81_n153# a_n33_n65# VSUBS
X0 a_n33_n65# a_n81_n153# a_n125_n65# VSUBS sky130_fd_pr__nfet_01v8 ad=4.29e+11p pd=3.92e+06u as=4.03e+11p ps=3.84e+06u w=650000u l=150000u
X1 a_n33_n65# a_n81_n153# a_n125_n65# VSUBS sky130_fd_pr__nfet_01v8 ad=0p pd=0u as=0p ps=0u w=650000u l=150000u
X2 a_n125_n65# a_n81_n153# a_n33_n65# VSUBS sky130_fd_pr__nfet_01v8 ad=0p pd=0u as=0p ps=0u w=650000u l=150000u
C0 a_n81_n153# a_n125_n65# 0.13fF
C1 a_n81_n153# a_n33_n65# 0.24fF
C2 a_n125_n65# a_n33_n65# 0.45fF
C3 a_n33_n65# VSUBS 0.02fF
C4 a_n125_n65# VSUBS 0.02fF
C5 a_n81_n153# VSUBS 0.33fF
.ends

.subckt n-leg_ctrl_fet_0 a_n125_n153# a_n125_n65# a_n33_n65# VSUBS
X0 a_n125_n65# a_n125_n153# a_n33_n65# VSUBS sky130_fd_pr__nfet_01v8 ad=3.4255e+12p pd=3.264e+07u as=3.432e+12p ps=3.136e+07u w=650000u l=150000u
X1 a_n33_n65# a_n125_n153# a_n125_n65# VSUBS sky130_fd_pr__nfet_01v8 ad=0p pd=0u as=0p ps=0u w=650000u l=150000u
X2 a_n33_n65# a_n125_n153# a_n125_n65# VSUBS sky130_fd_pr__nfet_01v8 ad=0p pd=0u as=0p ps=0u w=650000u l=150000u
X3 a_n125_n65# a_n125_n153# a_n33_n65# VSUBS sky130_fd_pr__nfet_01v8 ad=0p pd=0u as=0p ps=0u w=650000u l=150000u
X4 a_n33_n65# a_n125_n153# a_n125_n65# VSUBS sky130_fd_pr__nfet_01v8 ad=0p pd=0u as=0p ps=0u w=650000u l=150000u
X5 a_n33_n65# a_n125_n153# a_n125_n65# VSUBS sky130_fd_pr__nfet_01v8 ad=0p pd=0u as=0p ps=0u w=650000u l=150000u
X6 a_n125_n65# a_n125_n153# a_n33_n65# VSUBS sky130_fd_pr__nfet_01v8 ad=0p pd=0u as=0p ps=0u w=650000u l=150000u
X7 a_n33_n65# a_n125_n153# a_n125_n65# VSUBS sky130_fd_pr__nfet_01v8 ad=0p pd=0u as=0p ps=0u w=650000u l=150000u
X8 a_n33_n65# a_n125_n153# a_n125_n65# VSUBS sky130_fd_pr__nfet_01v8 ad=0p pd=0u as=0p ps=0u w=650000u l=150000u
X9 a_n125_n65# a_n125_n153# a_n33_n65# VSUBS sky130_fd_pr__nfet_01v8 ad=0p pd=0u as=0p ps=0u w=650000u l=150000u
X10 a_n33_n65# a_n125_n153# a_n125_n65# VSUBS sky130_fd_pr__nfet_01v8 ad=0p pd=0u as=0p ps=0u w=650000u l=150000u
X11 a_n125_n65# a_n125_n153# a_n33_n65# VSUBS sky130_fd_pr__nfet_01v8 ad=0p pd=0u as=0p ps=0u w=650000u l=150000u
X12 a_n33_n65# a_n125_n153# a_n125_n65# VSUBS sky130_fd_pr__nfet_01v8 ad=0p pd=0u as=0p ps=0u w=650000u l=150000u
X13 a_n125_n65# a_n125_n153# a_n33_n65# VSUBS sky130_fd_pr__nfet_01v8 ad=0p pd=0u as=0p ps=0u w=650000u l=150000u
X14 a_n125_n65# a_n125_n153# a_n33_n65# VSUBS sky130_fd_pr__nfet_01v8 ad=0p pd=0u as=0p ps=0u w=650000u l=150000u
X15 a_n33_n65# a_n125_n153# a_n125_n65# VSUBS sky130_fd_pr__nfet_01v8 ad=0p pd=0u as=0p ps=0u w=650000u l=150000u
X16 a_n33_n65# a_n125_n153# a_n125_n65# VSUBS sky130_fd_pr__nfet_01v8 ad=0p pd=0u as=0p ps=0u w=650000u l=150000u
X17 a_n125_n65# a_n125_n153# a_n33_n65# VSUBS sky130_fd_pr__nfet_01v8 ad=0p pd=0u as=0p ps=0u w=650000u l=150000u
X18 a_n33_n65# a_n125_n153# a_n125_n65# VSUBS sky130_fd_pr__nfet_01v8 ad=0p pd=0u as=0p ps=0u w=650000u l=150000u
X19 a_n125_n65# a_n125_n153# a_n33_n65# VSUBS sky130_fd_pr__nfet_01v8 ad=0p pd=0u as=0p ps=0u w=650000u l=150000u
X20 a_n33_n65# a_n125_n153# a_n125_n65# VSUBS sky130_fd_pr__nfet_01v8 ad=0p pd=0u as=0p ps=0u w=650000u l=150000u
X21 a_n125_n65# a_n125_n153# a_n33_n65# VSUBS sky130_fd_pr__nfet_01v8 ad=0p pd=0u as=0p ps=0u w=650000u l=150000u
X22 a_n125_n65# a_n125_n153# a_n33_n65# VSUBS sky130_fd_pr__nfet_01v8 ad=0p pd=0u as=0p ps=0u w=650000u l=150000u
X23 a_n33_n65# a_n125_n153# a_n125_n65# VSUBS sky130_fd_pr__nfet_01v8 ad=0p pd=0u as=0p ps=0u w=650000u l=150000u
X24 a_n33_n65# a_n125_n153# a_n125_n65# VSUBS sky130_fd_pr__nfet_01v8 ad=0p pd=0u as=0p ps=0u w=650000u l=150000u
X25 a_n125_n65# a_n125_n153# a_n33_n65# VSUBS sky130_fd_pr__nfet_01v8 ad=0p pd=0u as=0p ps=0u w=650000u l=150000u
X26 a_n125_n65# a_n125_n153# a_n33_n65# VSUBS sky130_fd_pr__nfet_01v8 ad=0p pd=0u as=0p ps=0u w=650000u l=150000u
X27 a_n33_n65# a_n125_n153# a_n125_n65# VSUBS sky130_fd_pr__nfet_01v8 ad=0p pd=0u as=0p ps=0u w=650000u l=150000u
X28 a_n125_n65# a_n125_n153# a_n33_n65# VSUBS sky130_fd_pr__nfet_01v8 ad=0p pd=0u as=0p ps=0u w=650000u l=150000u
X29 a_n125_n65# a_n125_n153# a_n33_n65# VSUBS sky130_fd_pr__nfet_01v8 ad=0p pd=0u as=0p ps=0u w=650000u l=150000u
X30 a_n33_n65# a_n125_n153# a_n125_n65# VSUBS sky130_fd_pr__nfet_01v8 ad=0p pd=0u as=0p ps=0u w=650000u l=150000u
X31 a_n125_n65# a_n125_n153# a_n33_n65# VSUBS sky130_fd_pr__nfet_01v8 ad=0p pd=0u as=0p ps=0u w=650000u l=150000u
C0 a_n33_n65# a_n125_n153# 1.42fF
C1 a_n33_n65# a_n125_n65# 3.92fF
C2 a_n125_n65# a_n125_n153# 2.76fF
C3 a_n33_n65# VSUBS 0.02fF
C4 a_n125_n65# VSUBS 0.02fF
C5 a_n125_n153# VSUBS 3.21fF
.ends

.subckt n-leg_ctrl_fet_3 a_15_n19# a_n73_n19# a_n33_n107# VSUBS
X0 a_15_n19# a_n33_n107# a_n73_n19# VSUBS sky130_fd_pr__nfet_01v8 ad=1.45e+11p pd=1.58e+06u as=1.45e+11p ps=1.58e+06u w=500000u l=150000u
C0 a_15_n19# a_n73_n19# 0.07fF
C1 a_15_n19# VSUBS 0.02fF
C2 a_n73_n19# VSUBS 0.02fF
C3 a_n33_n107# VSUBS 0.13fF
.ends

.subckt n-leg_ctrl_fet_1 a_n125_n153# a_n125_n65# a_n33_n65# VSUBS
X0 a_n33_n65# a_n125_n153# a_n125_n65# VSUBS sky130_fd_pr__nfet_01v8 ad=8.58e+11p pd=7.84e+06u as=1.0075e+12p ps=9.6e+06u w=650000u l=150000u
X1 a_n33_n65# a_n125_n153# a_n125_n65# VSUBS sky130_fd_pr__nfet_01v8 ad=0p pd=0u as=0p ps=0u w=650000u l=150000u
X2 a_n33_n65# a_n125_n153# a_n125_n65# VSUBS sky130_fd_pr__nfet_01v8 ad=0p pd=0u as=0p ps=0u w=650000u l=150000u
X3 a_n125_n65# a_n125_n153# a_n33_n65# VSUBS sky130_fd_pr__nfet_01v8 ad=0p pd=0u as=0p ps=0u w=650000u l=150000u
X4 a_n125_n65# a_n125_n153# a_n33_n65# VSUBS sky130_fd_pr__nfet_01v8 ad=0p pd=0u as=0p ps=0u w=650000u l=150000u
X5 a_n33_n65# a_n125_n153# a_n125_n65# VSUBS sky130_fd_pr__nfet_01v8 ad=0p pd=0u as=0p ps=0u w=650000u l=150000u
X6 a_n125_n65# a_n125_n153# a_n33_n65# VSUBS sky130_fd_pr__nfet_01v8 ad=0p pd=0u as=0p ps=0u w=650000u l=150000u
X7 a_n125_n65# a_n125_n153# a_n33_n65# VSUBS sky130_fd_pr__nfet_01v8 ad=0p pd=0u as=0p ps=0u w=650000u l=150000u
C0 a_n125_n65# a_n33_n65# 1.05fF
C1 a_n125_n65# a_n125_n153# 0.37fF
C2 a_n125_n153# a_n33_n65# 0.73fF
C3 a_n33_n65# VSUBS 0.02fF
C4 a_n125_n65# VSUBS 0.02fF
C5 a_n125_n153# VSUBS 0.88fF
.ends

.subckt n-leg_polyres a_n33_170# a_n33_n243# VSUBS
R0 a_n33_n243# a_n33_170# sky130_fd_pr__res_generic_po w=330000u l=1.7e+06u
C0 a_n33_170# a_n33_n243# 0.01fF
C1 a_n33_n243# VSUBS 0.07fF
C2 a_n33_170# VSUBS 0.07fF
.ends

.subckt n-leg pd_ctrl cal_ctrl[0] cal_ctrl[1] cal_ctrl[2] cal_ctrl[3] li_1854_527#
+ vpulldown DQ GND
Xn-leg_ctrl_fet_2_0 DQ cal_ctrl[2] vpulldown GND n-leg_ctrl_fet_2
Xn-leg_ctrl_fet_0_0 cal_ctrl[0] DQ vpulldown GND n-leg_ctrl_fet_0
Xn-leg_ctrl_fet_3_0 DQ vpulldown cal_ctrl[3] GND n-leg_ctrl_fet_3
Xn-leg_ctrl_fet_1_0 cal_ctrl[1] vpulldown DQ GND n-leg_ctrl_fet_1
Xn-leg_polyres_0 vpulldown DQ GND n-leg_polyres
X0 GND pd_ctrl vpulldown GND sky130_fd_pr__nfet_01v8 ad=1.20215e+13p pd=2.595e+06u as=9.6163e+12p ps=9.0425e+07u w=650000u l=150000u
X1 GND pd_ctrl vpulldown GND sky130_fd_pr__nfet_01v8 ad=0p pd=0u as=0p ps=0u w=650000u l=150000u
X2 GND pd_ctrl vpulldown GND sky130_fd_pr__nfet_01v8 ad=0p pd=0u as=0p ps=0u w=650000u l=150000u
X3 GND pd_ctrl vpulldown GND sky130_fd_pr__nfet_01v8 ad=0p pd=0u as=0p ps=0u w=650000u l=150000u
X4 GND pd_ctrl vpulldown GND sky130_fd_pr__nfet_01v8 ad=0p pd=0u as=0p ps=0u w=650000u l=150000u
X5 GND pd_ctrl vpulldown GND sky130_fd_pr__nfet_01v8 ad=0p pd=0u as=0p ps=0u w=650000u l=150000u
X6 vpulldown pd_ctrl GND GND sky130_fd_pr__nfet_01v8 ad=0p pd=0u as=0p ps=0u w=650000u l=150000u
X7 vpulldown pd_ctrl GND GND sky130_fd_pr__nfet_01v8 ad=0p pd=0u as=0p ps=0u w=650000u l=150000u
X8 GND pd_ctrl vpulldown GND sky130_fd_pr__nfet_01v8 ad=0p pd=0u as=0p ps=0u w=650000u l=150000u
X9 vpulldown pd_ctrl GND GND sky130_fd_pr__nfet_01v8 ad=0p pd=0u as=0p ps=0u w=650000u l=150000u
X10 GND pd_ctrl vpulldown GND sky130_fd_pr__nfet_01v8 ad=0p pd=0u as=0p ps=0u w=650000u l=150000u
X11 vpulldown pd_ctrl GND GND sky130_fd_pr__nfet_01v8 ad=0p pd=0u as=0p ps=0u w=650000u l=150000u
X12 vpulldown pd_ctrl GND GND sky130_fd_pr__nfet_01v8 ad=0p pd=0u as=0p ps=0u w=650000u l=150000u
X13 vpulldown pd_ctrl GND GND sky130_fd_pr__nfet_01v8 ad=0p pd=0u as=0p ps=0u w=650000u l=150000u
X14 GND pd_ctrl vpulldown GND sky130_fd_pr__nfet_01v8 ad=0p pd=0u as=0p ps=0u w=650000u l=150000u
X15 GND pd_ctrl vpulldown GND sky130_fd_pr__nfet_01v8 ad=0p pd=0u as=0p ps=0u w=650000u l=150000u
X16 vpulldown pd_ctrl GND GND sky130_fd_pr__nfet_01v8 ad=0p pd=0u as=0p ps=0u w=650000u l=150000u
X17 GND pd_ctrl vpulldown GND sky130_fd_pr__nfet_01v8 ad=0p pd=0u as=0p ps=0u w=650000u l=150000u
X18 vpulldown pd_ctrl GND GND sky130_fd_pr__nfet_01v8 ad=0p pd=0u as=0p ps=0u w=650000u l=150000u
X19 vpulldown pd_ctrl GND GND sky130_fd_pr__nfet_01v8 ad=0p pd=0u as=0p ps=0u w=650000u l=150000u
X20 vpulldown pd_ctrl GND GND sky130_fd_pr__nfet_01v8 ad=0p pd=0u as=0p ps=0u w=650000u l=150000u
X21 vpulldown pd_ctrl GND GND sky130_fd_pr__nfet_01v8 ad=0p pd=0u as=0p ps=0u w=650000u l=150000u
X22 vpulldown pd_ctrl GND GND sky130_fd_pr__nfet_01v8 ad=0p pd=0u as=0p ps=0u w=650000u l=150000u
X23 vpulldown pd_ctrl GND GND sky130_fd_pr__nfet_01v8 ad=0p pd=0u as=0p ps=0u w=650000u l=150000u
X24 vpulldown pd_ctrl GND GND sky130_fd_pr__nfet_01v8 ad=0p pd=0u as=0p ps=0u w=650000u l=150000u
X25 vpulldown pd_ctrl GND GND sky130_fd_pr__nfet_01v8 ad=0p pd=0u as=0p ps=0u w=650000u l=150000u
X26 vpulldown pd_ctrl GND GND sky130_fd_pr__nfet_01v8 ad=0p pd=0u as=0p ps=0u w=650000u l=150000u
X27 vpulldown pd_ctrl GND GND sky130_fd_pr__nfet_01v8 ad=0p pd=0u as=0p ps=0u w=650000u l=150000u
X28 vpulldown pd_ctrl GND GND sky130_fd_pr__nfet_01v8 ad=0p pd=0u as=0p ps=0u w=650000u l=150000u
X29 vpulldown pd_ctrl GND GND sky130_fd_pr__nfet_01v8 ad=0p pd=0u as=0p ps=0u w=650000u l=150000u
X30 GND pd_ctrl vpulldown GND sky130_fd_pr__nfet_01v8 ad=0p pd=0u as=0p ps=0u w=650000u l=150000u
X31 vpulldown pd_ctrl GND GND sky130_fd_pr__nfet_01v8 ad=0p pd=0u as=0p ps=0u w=650000u l=150000u
X32 vpulldown pd_ctrl GND GND sky130_fd_pr__nfet_01v8 ad=0p pd=0u as=0p ps=0u w=650000u l=150000u
X33 vpulldown pd_ctrl GND GND sky130_fd_pr__nfet_01v8 ad=0p pd=0u as=0p ps=0u w=650000u l=150000u
X34 GND pd_ctrl vpulldown GND sky130_fd_pr__nfet_01v8 ad=0p pd=0u as=0p ps=0u w=650000u l=150000u
X35 GND pd_ctrl vpulldown GND sky130_fd_pr__nfet_01v8 ad=0p pd=0u as=0p ps=0u w=650000u l=150000u
X36 GND pd_ctrl vpulldown GND sky130_fd_pr__nfet_01v8 ad=0p pd=0u as=0p ps=0u w=650000u l=150000u
X37 vpulldown pd_ctrl GND GND sky130_fd_pr__nfet_01v8 ad=0p pd=0u as=0p ps=0u w=650000u l=150000u
X38 vpulldown pd_ctrl GND GND sky130_fd_pr__nfet_01v8 ad=0p pd=0u as=0p ps=0u w=650000u l=150000u
X39 GND pd_ctrl vpulldown GND sky130_fd_pr__nfet_01v8 ad=0p pd=0u as=0p ps=0u w=650000u l=150000u
X40 GND pd_ctrl vpulldown GND sky130_fd_pr__nfet_01v8 ad=0p pd=0u as=0p ps=0u w=650000u l=150000u
X41 GND pd_ctrl vpulldown GND sky130_fd_pr__nfet_01v8 ad=0p pd=0u as=0p ps=0u w=650000u l=150000u
X42 GND pd_ctrl vpulldown GND sky130_fd_pr__nfet_01v8 ad=0p pd=0u as=0p ps=0u w=650000u l=150000u
X43 GND pd_ctrl vpulldown GND sky130_fd_pr__nfet_01v8 ad=0p pd=0u as=0p ps=0u w=650000u l=150000u
X44 GND pd_ctrl vpulldown GND sky130_fd_pr__nfet_01v8 ad=0p pd=0u as=0p ps=0u w=650000u l=150000u
X45 GND pd_ctrl vpulldown GND sky130_fd_pr__nfet_01v8 ad=0p pd=0u as=0p ps=0u w=650000u l=150000u
X46 GND pd_ctrl vpulldown GND sky130_fd_pr__nfet_01v8 ad=0p pd=0u as=0p ps=0u w=650000u l=150000u
X47 GND pd_ctrl vpulldown GND sky130_fd_pr__nfet_01v8 ad=0p pd=0u as=0p ps=0u w=650000u l=150000u
C0 cal_ctrl[2] DQ 0.26fF
C1 li_1854_527# cal_ctrl[0] 0.56fF
C2 cal_ctrl[0] cal_ctrl[3] 0.73fF
C3 li_1854_527# cal_ctrl[3] 5.59fF
C4 vpulldown cal_ctrl[1] 0.76fF
C5 pd_ctrl vpulldown 7.80fF
C6 cal_ctrl[0] cal_ctrl[2] 0.98fF
C7 li_1854_527# cal_ctrl[2] 1.94fF
C8 cal_ctrl[2] cal_ctrl[3] 7.56fF
C9 DQ cal_ctrl[1] 1.18fF
C10 pd_ctrl DQ 0.03fF
C11 vpulldown DQ 0.55fF
C12 cal_ctrl[0] cal_ctrl[1] 5.93fF
C13 li_1854_527# cal_ctrl[1] 0.87fF
C14 cal_ctrl[3] cal_ctrl[1] 1.18fF
C15 li_1854_527# pd_ctrl 0.55fF
C16 cal_ctrl[0] vpulldown 0.08fF
C17 li_1854_527# vpulldown 2.00fF
C18 vpulldown cal_ctrl[3] 0.17fF
C19 cal_ctrl[2] cal_ctrl[1] 2.56fF
C20 cal_ctrl[0] DQ 0.18fF
C21 cal_ctrl[2] vpulldown 0.86fF
C22 li_1854_527# DQ 0.80fF
C23 DQ cal_ctrl[3] 0.15fF
C24 pd_ctrl GND 8.51fF
C25 li_1854_527# GND 4.28fF
C26 DQ GND 1.52fF
C27 vpulldown GND 12.60fF
C28 cal_ctrl[1] GND 4.42fF
C29 cal_ctrl[3] GND 2.77fF
C30 cal_ctrl[0] GND 13.30fF
C31 cal_ctrl[2] GND 2.75fF
.ends

.subckt p-leg_fet_16 a_n1053_n161# a_n1053_n64# a_995_n64# a_n285_n64# a_n541_n64#
+ a_483_n64# a_739_n64# a_n29_n64# a_n925_n64# a_227_n64# w_n1089_n100# a_n797_n64#
+ VSUBS
X0 a_n925_n64# a_n1053_n161# a_n541_n64# w_n1089_n100# sky130_fd_pr__pfet_01v8_lvt ad=2.32e+12p pd=2.064e+07u as=2.9e+11p ps=2.58e+06u w=1e+06u l=350000u
X1 a_n797_n64# a_n1053_n161# a_n925_n64# w_n1089_n100# sky130_fd_pr__pfet_01v8_lvt ad=2.9e+11p pd=2.58e+06u as=0p ps=0u w=1e+06u l=350000u
X2 a_n925_n64# a_n1053_n161# a_227_n64# w_n1089_n100# sky130_fd_pr__pfet_01v8_lvt ad=0p pd=0u as=2.9e+11p ps=2.58e+06u w=1e+06u l=350000u
X3 a_739_n64# a_n1053_n161# a_n925_n64# w_n1089_n100# sky130_fd_pr__pfet_01v8_lvt ad=2.9e+11p pd=2.58e+06u as=0p ps=0u w=1e+06u l=350000u
X4 a_n925_n64# a_n1053_n161# a_n29_n64# w_n1089_n100# sky130_fd_pr__pfet_01v8_lvt ad=0p pd=0u as=2.9e+11p ps=2.58e+06u w=1e+06u l=350000u
X5 a_n285_n64# a_n1053_n161# a_n925_n64# w_n1089_n100# sky130_fd_pr__pfet_01v8_lvt ad=2.9e+11p pd=2.58e+06u as=0p ps=0u w=1e+06u l=350000u
X6 a_n925_n64# a_n1053_n161# a_n797_n64# w_n1089_n100# sky130_fd_pr__pfet_01v8_lvt ad=0p pd=0u as=0p ps=0u w=1e+06u l=350000u
X7 a_227_n64# a_n1053_n161# a_n925_n64# w_n1089_n100# sky130_fd_pr__pfet_01v8_lvt ad=0p pd=0u as=0p ps=0u w=1e+06u l=350000u
X8 a_n925_n64# a_n1053_n161# a_483_n64# w_n1089_n100# sky130_fd_pr__pfet_01v8_lvt ad=0p pd=0u as=2.9e+11p ps=2.58e+06u w=1e+06u l=350000u
X9 a_995_n64# a_n1053_n161# a_n925_n64# w_n1089_n100# sky130_fd_pr__pfet_01v8_lvt ad=2.9e+11p pd=2.58e+06u as=0p ps=0u w=1e+06u l=350000u
X10 a_n925_n64# a_n1053_n161# a_n1053_n64# w_n1089_n100# sky130_fd_pr__pfet_01v8_lvt ad=0p pd=0u as=2.9e+11p ps=2.58e+06u w=1e+06u l=350000u
X11 a_n925_n64# a_n1053_n161# a_739_n64# w_n1089_n100# sky130_fd_pr__pfet_01v8_lvt ad=0p pd=0u as=0p ps=0u w=1e+06u l=350000u
X12 a_n541_n64# a_n1053_n161# a_n925_n64# w_n1089_n100# sky130_fd_pr__pfet_01v8_lvt ad=0p pd=0u as=0p ps=0u w=1e+06u l=350000u
X13 a_n925_n64# a_n1053_n161# a_n285_n64# w_n1089_n100# sky130_fd_pr__pfet_01v8_lvt ad=0p pd=0u as=0p ps=0u w=1e+06u l=350000u
X14 a_n29_n64# a_n1053_n161# a_n925_n64# w_n1089_n100# sky130_fd_pr__pfet_01v8_lvt ad=0p pd=0u as=0p ps=0u w=1e+06u l=350000u
X15 a_483_n64# a_n1053_n161# a_n925_n64# w_n1089_n100# sky130_fd_pr__pfet_01v8_lvt ad=0p pd=0u as=0p ps=0u w=1e+06u l=350000u
C0 a_n541_n64# a_n797_n64# 0.02fF
C1 a_227_n64# a_n925_n64# 0.06fF
C2 a_995_n64# w_n1089_n100# 0.07fF
C3 a_n925_n64# a_n1053_n64# 0.07fF
C4 a_227_n64# a_n29_n64# 0.02fF
C5 a_227_n64# a_483_n64# 0.02fF
C6 a_n797_n64# w_n1089_n100# 0.07fF
C7 a_739_n64# w_n1089_n100# 0.07fF
C8 a_n925_n64# a_n1053_n161# 2.38fF
C9 a_739_n64# a_995_n64# 0.02fF
C10 a_n29_n64# a_n925_n64# 0.06fF
C11 a_n925_n64# a_483_n64# 0.06fF
C12 a_n925_n64# a_n285_n64# 0.06fF
C13 a_n925_n64# a_n541_n64# 0.06fF
C14 a_227_n64# w_n1089_n100# 0.07fF
C15 a_n29_n64# a_n285_n64# 0.02fF
C16 a_n1053_n64# w_n1089_n100# 0.07fF
C17 a_n541_n64# a_n285_n64# 0.02fF
C18 a_n925_n64# w_n1089_n100# 1.05fF
C19 a_n925_n64# a_995_n64# 0.07fF
C20 a_n1053_n161# w_n1089_n100# 0.95fF
C21 a_n29_n64# w_n1089_n100# 0.07fF
C22 a_483_n64# w_n1089_n100# 0.07fF
C23 a_n797_n64# a_n1053_n64# 0.02fF
C24 a_n285_n64# w_n1089_n100# 0.07fF
C25 a_n541_n64# w_n1089_n100# 0.07fF
C26 a_n925_n64# a_n797_n64# 0.06fF
C27 a_n925_n64# a_739_n64# 0.06fF
C28 a_483_n64# a_739_n64# 0.02fF
C29 a_995_n64# VSUBS -0.04fF
C30 a_739_n64# VSUBS -0.04fF
C31 a_483_n64# VSUBS -0.04fF
C32 a_227_n64# VSUBS -0.04fF
C33 a_n29_n64# VSUBS -0.04fF
C34 a_n285_n64# VSUBS -0.04fF
C35 a_n541_n64# VSUBS -0.04fF
C36 a_n797_n64# VSUBS -0.04fF
C37 a_n925_n64# VSUBS -0.84fF
C38 a_n1053_n64# VSUBS -0.04fF
C39 a_n1053_n161# VSUBS 1.21fF
C40 w_n1089_n100# VSUBS 1.95fF
.ends

.subckt p-leg_polyres a_n33_n253# a_n33_180# VSUBS
R0 a_n33_n253# a_n33_180# sky130_fd_pr__res_generic_po w=330000u l=1.8e+06u
C0 a_n33_n253# VSUBS 0.09fF
C1 a_n33_180# VSUBS 0.09fF
.ends

.subckt p-leg_6 a_n1053_n64# a_n285_n64# a_n541_n64# a_n995_n161# a_n925_n64# w_n1089_n100#
+ a_n797_n64# VSUBS
X0 a_n925_n64# a_n995_n161# a_n541_n64# w_n1089_n100# sky130_fd_pr__pfet_01v8_lvt ad=8.7e+11p pd=7.74e+06u as=2.9e+11p ps=2.58e+06u w=1e+06u l=350000u
X1 a_n797_n64# a_n995_n161# a_n925_n64# w_n1089_n100# sky130_fd_pr__pfet_01v8_lvt ad=2.9e+11p pd=2.58e+06u as=0p ps=0u w=1e+06u l=350000u
X2 a_n285_n64# a_n995_n161# a_n925_n64# w_n1089_n100# sky130_fd_pr__pfet_01v8_lvt ad=2.9e+11p pd=2.58e+06u as=0p ps=0u w=1e+06u l=350000u
X3 a_n925_n64# a_n995_n161# a_n797_n64# w_n1089_n100# sky130_fd_pr__pfet_01v8_lvt ad=0p pd=0u as=0p ps=0u w=1e+06u l=350000u
X4 a_n925_n64# a_n995_n161# a_n1053_n64# w_n1089_n100# sky130_fd_pr__pfet_01v8_lvt ad=0p pd=0u as=2.9e+11p ps=2.58e+06u w=1e+06u l=350000u
X5 a_n541_n64# a_n995_n161# a_n925_n64# w_n1089_n100# sky130_fd_pr__pfet_01v8_lvt ad=0p pd=0u as=0p ps=0u w=1e+06u l=350000u
C0 a_n925_n64# a_n797_n64# 0.06fF
C1 a_n541_n64# a_n797_n64# 0.02fF
C2 w_n1089_n100# a_n797_n64# 0.06fF
C3 a_n925_n64# a_n541_n64# 0.06fF
C4 a_n925_n64# w_n1089_n100# 0.42fF
C5 a_n925_n64# a_n995_n161# 0.84fF
C6 a_n541_n64# w_n1089_n100# 0.06fF
C7 a_n995_n161# w_n1089_n100# 0.34fF
C8 a_n925_n64# a_n285_n64# 0.06fF
C9 a_n541_n64# a_n285_n64# 0.02fF
C10 a_n1053_n64# a_n797_n64# 0.02fF
C11 w_n1089_n100# a_n285_n64# 0.06fF
C12 a_n925_n64# a_n1053_n64# 0.07fF
C13 a_n1053_n64# w_n1089_n100# 0.06fF
C14 a_n285_n64# VSUBS -0.05fF
C15 a_n541_n64# VSUBS -0.05fF
C16 a_n797_n64# VSUBS -0.05fF
C17 a_n925_n64# VSUBS -0.33fF
C18 a_n1053_n64# VSUBS -0.05fF
C19 a_n995_n161# VSUBS 0.44fF
C20 w_n1089_n100# VSUBS 0.80fF
.ends

.subckt p-leg n_cal_ctrl[0] n_cal_ctrl[1] n_cal_ctrl[2] n_cal_ctrl[3] w_3710_2162#
+ li_4_2169# w_1502_2162# w_4446_2162# w_2974_2162# w_2238_2162# w_5918_2162# extr_sky130_fd_sc_hd__fill_8_9/VPWR
+ w_766_2162# extr_sky130_fd_sc_hd__fill_8_8/VGND extr_sky130_fd_sc_hd__fill_8_9/VGND VDD li_16_1957#
+ w_5182_2162# n_pu_ctrl p-leg_6_6/VSUBS DQ
Xp-leg_fet_16_4 n_pu_ctrl VDD VDD VDD VDD VDD VDD VDD li_16_1957# VDD VDD VDD p-leg_6_6/VSUBS
+ p-leg_fet_16
Xp-leg_fet_16_5 n_pu_ctrl VDD VDD VDD VDD VDD VDD VDD li_16_1957# VDD VDD VDD p-leg_6_6/VSUBS
+ p-leg_fet_16
Xp-leg_fet_16_6 n_cal_ctrl[0] li_16_1957# li_16_1957# li_16_1957# li_16_1957# li_16_1957#
+ li_16_1957# li_16_1957# DQ li_16_1957# VDD li_16_1957# p-leg_6_6/VSUBS p-leg_fet_16
Xp-leg_fet_16_7 n_cal_ctrl[0] li_16_1957# li_16_1957# li_16_1957# li_16_1957# li_16_1957#
+ li_16_1957# li_16_1957# DQ li_16_1957# VDD li_16_1957# p-leg_6_6/VSUBS p-leg_fet_16
Xp-leg_polyres_0 DQ li_16_1957# p-leg_6_6/VSUBS p-leg_polyres
Xp-leg_fet_16_8 n_cal_ctrl[0] li_16_1957# li_16_1957# li_16_1957# li_16_1957# li_16_1957#
+ li_16_1957# li_16_1957# DQ li_16_1957# VDD li_16_1957# p-leg_6_6/VSUBS p-leg_fet_16
Xp-leg_6_0 DQ DQ DQ n_cal_ctrl[1] li_16_1957# VDD DQ p-leg_6_6/VSUBS p-leg_6
Xp-leg_6_1 DQ DQ DQ n_cal_ctrl[1] li_16_1957# VDD DQ p-leg_6_6/VSUBS p-leg_6
Xp-leg_6_2 DQ DQ DQ n_cal_ctrl[1] li_16_1957# VDD DQ p-leg_6_6/VSUBS p-leg_6
Xp-leg_6_3 DQ DQ DQ n_cal_ctrl[1] li_16_1957# VDD DQ p-leg_6_6/VSUBS p-leg_6
Xp-leg_6_4 DQ DQ DQ n_cal_ctrl[2] li_16_1957# VDD DQ p-leg_6_6/VSUBS p-leg_6
Xp-leg_6_6 li_16_1957# li_16_1957# li_16_1957# n_cal_ctrl[3] DQ VDD li_16_1957# p-leg_6_6/VSUBS
+ p-leg_6
Xp-leg_6_5 DQ DQ DQ n_cal_ctrl[2] li_16_1957# VDD DQ p-leg_6_6/VSUBS p-leg_6
Xp-leg_fet_16_0 n_pu_ctrl VDD VDD VDD VDD VDD VDD VDD li_16_1957# VDD VDD VDD p-leg_6_6/VSUBS
+ p-leg_fet_16
Xp-leg_fet_16_1 n_pu_ctrl VDD VDD VDD VDD VDD VDD VDD li_16_1957# VDD VDD VDD p-leg_6_6/VSUBS
+ p-leg_fet_16
Xp-leg_fet_16_2 n_pu_ctrl VDD VDD VDD VDD VDD VDD VDD li_16_1957# VDD VDD VDD p-leg_6_6/VSUBS
+ p-leg_fet_16
Xp-leg_fet_16_3 n_pu_ctrl VDD VDD VDD VDD VDD VDD VDD li_16_1957# VDD VDD VDD p-leg_6_6/VSUBS
+ p-leg_fet_16
C0 extr_sky130_fd_sc_hd__fill_8_8/VGND VDD 0.08fF
C1 li_16_1957# VDD 5.24fF
C2 li_16_1957# n_cal_ctrl[2] 1.83fF
C3 n_pu_ctrl extr_sky130_fd_sc_hd__fill_8_8/VGND 1.13fF
C4 n_pu_ctrl li_16_1957# 0.03fF
C5 li_16_1957# n_cal_ctrl[3] 1.50fF
C6 li_16_1957# extr_sky130_fd_sc_hd__fill_8_9/VGND 1.97fF
C7 li_16_1957# n_cal_ctrl[0] 3.57fF
C8 li_16_1957# DQ 6.76fF
C9 extr_sky130_fd_sc_hd__fill_8_9/VPWR VDD 0.55fF
C10 li_4_2169# n_cal_ctrl[0] 0.80fF
C11 li_4_2169# DQ 0.72fF
C12 n_cal_ctrl[2] VDD 6.76fF
C13 n_pu_ctrl VDD 2.31fF
C14 n_pu_ctrl n_cal_ctrl[2] 0.08fF
C15 li_16_1957# n_cal_ctrl[1] 1.06fF
C16 n_cal_ctrl[3] VDD 2.74fF
C17 extr_sky130_fd_sc_hd__fill_8_9/VGND VDD 0.34fF
C18 n_cal_ctrl[0] VDD 20.34fF
C19 n_cal_ctrl[3] n_cal_ctrl[2] 7.51fF
C20 n_cal_ctrl[2] extr_sky130_fd_sc_hd__fill_8_9/VGND 1.84fF
C21 DQ VDD 3.33fF
C22 n_cal_ctrl[2] n_cal_ctrl[0] 1.44fF
C23 n_pu_ctrl n_cal_ctrl[3] 0.14fF
C24 n_pu_ctrl extr_sky130_fd_sc_hd__fill_8_9/VGND 1.32fF
C25 n_cal_ctrl[2] DQ 2.44fF
C26 n_pu_ctrl DQ 0.59fF
C27 n_cal_ctrl[1] VDD 16.25fF
C28 n_cal_ctrl[2] n_cal_ctrl[1] 7.25fF
C29 n_cal_ctrl[3] extr_sky130_fd_sc_hd__fill_8_9/VGND 2.41fF
C30 n_pu_ctrl n_cal_ctrl[1] 0.12fF
C31 n_cal_ctrl[3] n_cal_ctrl[0] 0.52fF
C32 n_cal_ctrl[3] DQ 2.21fF
C33 DQ extr_sky130_fd_sc_hd__fill_8_9/VGND 2.25fF
C34 li_16_1957# extr_sky130_fd_sc_hd__fill_8_8/VGND 0.78fF
C35 DQ n_cal_ctrl[0] 0.53fF
C36 li_4_2169# li_16_1957# 2.07fF
C37 n_cal_ctrl[3] n_cal_ctrl[1] 2.02fF
C38 extr_sky130_fd_sc_hd__fill_8_9/VGND n_cal_ctrl[1] 0.80fF
C39 n_cal_ctrl[0] n_cal_ctrl[1] 3.06fF
C40 DQ n_cal_ctrl[1] 1.68fF
C41 n_cal_ctrl[1] p-leg_6_6/VSUBS -0.59fF
C42 li_4_2169# p-leg_6_6/VSUBS 6.04fF
C43 VDD p-leg_6_6/VSUBS 33.14fF
C44 n_cal_ctrl[3] p-leg_6_6/VSUBS 1.75fF
C45 extr_sky130_fd_sc_hd__fill_8_9/VPWR p-leg_6_6/VSUBS 0.16fF
C46 n_cal_ctrl[2] p-leg_6_6/VSUBS -0.44fF
C47 DQ p-leg_6_6/VSUBS -3.95fF
C48 li_16_1957# p-leg_6_6/VSUBS -6.69fF
C49 extr_sky130_fd_sc_hd__fill_8_8/VGND p-leg_6_6/VSUBS 6.12fF
C50 n_cal_ctrl[0] p-leg_6_6/VSUBS 0.18fF
C51 extr_sky130_fd_sc_hd__fill_8_9/VGND p-leg_6_6/VSUBS 5.24fF
C52 n_pu_ctrl p-leg_6_6/VSUBS 6.68fF
.ends

.subckt extr_sky130_fd_sc_hd__clkbuf_8 A VGND VPWR X a_110_47# VNB VPB
X0 VPWR A a_110_47# VPB sky130_fd_pr__pfet_01v8_hvt ad=1.65e+12p pd=1.53e+07u as=2.8e+11p ps=2.56e+06u w=1e+06u l=150000u
X1 VPWR a_110_47# X VPB sky130_fd_pr__pfet_01v8_hvt ad=0p pd=0u as=1.12e+12p ps=1.024e+07u w=1e+06u l=150000u
X2 X a_110_47# VPWR VPB sky130_fd_pr__pfet_01v8_hvt ad=0p pd=0u as=0p ps=0u w=1e+06u l=150000u
X3 a_110_47# A VPWR VPB sky130_fd_pr__pfet_01v8_hvt ad=0p pd=0u as=0p ps=0u w=1e+06u l=150000u
X4 X a_110_47# VGND VNB sky130_fd_pr__nfet_01v8 ad=4.704e+11p pd=5.6e+06u as=6.951e+11p ps=8.35e+06u w=420000u l=150000u
X5 X a_110_47# VPWR VPB sky130_fd_pr__pfet_01v8_hvt ad=0p pd=0u as=0p ps=0u w=1e+06u l=150000u
X6 VGND a_110_47# X VNB sky130_fd_pr__nfet_01v8 ad=0p pd=0u as=0p ps=0u w=420000u l=150000u
X7 VPWR a_110_47# X VPB sky130_fd_pr__pfet_01v8_hvt ad=0p pd=0u as=0p ps=0u w=1e+06u l=150000u
X8 VGND A a_110_47# VNB sky130_fd_pr__nfet_01v8 ad=0p pd=0u as=1.176e+11p ps=1.4e+06u w=420000u l=150000u
X9 VGND a_110_47# X VNB sky130_fd_pr__nfet_01v8 ad=0p pd=0u as=0p ps=0u w=420000u l=150000u
X10 a_110_47# A VGND VNB sky130_fd_pr__nfet_01v8 ad=0p pd=0u as=0p ps=0u w=420000u l=150000u
X11 VPWR a_110_47# X VPB sky130_fd_pr__pfet_01v8_hvt ad=0p pd=0u as=0p ps=0u w=1e+06u l=150000u
X12 X a_110_47# VPWR VPB sky130_fd_pr__pfet_01v8_hvt ad=0p pd=0u as=0p ps=0u w=1e+06u l=150000u
X13 VGND a_110_47# X VNB sky130_fd_pr__nfet_01v8 ad=0p pd=0u as=0p ps=0u w=420000u l=150000u
X14 VGND a_110_47# X VNB sky130_fd_pr__nfet_01v8 ad=0p pd=0u as=0p ps=0u w=420000u l=150000u
X15 X a_110_47# VPWR VPB sky130_fd_pr__pfet_01v8_hvt ad=0p pd=0u as=0p ps=0u w=1e+06u l=150000u
X16 X a_110_47# VGND VNB sky130_fd_pr__nfet_01v8 ad=0p pd=0u as=0p ps=0u w=420000u l=150000u
X17 VPWR a_110_47# X VPB sky130_fd_pr__pfet_01v8_hvt ad=0p pd=0u as=0p ps=0u w=1e+06u l=150000u
X18 X a_110_47# VGND VNB sky130_fd_pr__nfet_01v8 ad=0p pd=0u as=0p ps=0u w=420000u l=150000u
X19 X a_110_47# VGND VNB sky130_fd_pr__nfet_01v8 ad=0p pd=0u as=0p ps=0u w=420000u l=150000u
C0 VPWR VPB 1.16fF
C1 VPWR A 0.08fF
C2 X a_110_47# 1.39fF
C3 X VPB 0.51fF
C4 X VPWR 1.77fF
C5 VGND a_110_47# 0.43fF
C6 VGND A 0.08fF
C7 VGND VPWR 0.05fF
C8 a_110_47# VPB 0.65fF
C9 a_110_47# A 0.39fF
C10 VPWR a_110_47# 0.68fF
C11 VGND X 1.10fF
C12 VPB A 0.12fF
C13 VGND VNB 0.81fF
C14 X VNB -0.20fF
C15 VPWR VNB -0.38fF
C16 A VNB 0.34fF
C17 VPB VNB 1.05fF
C18 a_110_47# VNB 0.94fF
.ends

.subckt extr_sky130_fd_sc_hd__clkinv_4 A VGND VPWR Y VNB VPB
X0 Y A VPWR VPB sky130_fd_pr__pfet_01v8_hvt ad=8.4e+11p pd=7.68e+06u as=1.21e+12p ps=1.042e+07u w=1e+06u l=150000u
X1 VGND A Y VNB sky130_fd_pr__nfet_01v8 ad=4.221e+11p pd=4.53e+06u as=2.352e+11p ps=2.8e+06u w=420000u l=150000u
X2 VGND A Y VNB sky130_fd_pr__nfet_01v8 ad=0p pd=0u as=0p ps=0u w=420000u l=150000u
X3 VPWR A Y VPB sky130_fd_pr__pfet_01v8_hvt ad=0p pd=0u as=0p ps=0u w=1e+06u l=150000u
X4 VPWR A Y VPB sky130_fd_pr__pfet_01v8_hvt ad=0p pd=0u as=0p ps=0u w=1e+06u l=150000u
X5 Y A VGND VNB sky130_fd_pr__nfet_01v8 ad=0p pd=0u as=0p ps=0u w=420000u l=150000u
X6 Y A VPWR VPB sky130_fd_pr__pfet_01v8_hvt ad=0p pd=0u as=0p ps=0u w=1e+06u l=150000u
X7 Y A VGND VNB sky130_fd_pr__nfet_01v8 ad=0p pd=0u as=0p ps=0u w=420000u l=150000u
X8 Y A VPWR VPB sky130_fd_pr__pfet_01v8_hvt ad=0p pd=0u as=0p ps=0u w=1e+06u l=150000u
X9 VPWR A Y VPB sky130_fd_pr__pfet_01v8_hvt ad=0p pd=0u as=0p ps=0u w=1e+06u l=150000u
C0 VGND Y 0.67fF
C1 VPWR A 0.16fF
C2 VPB A 0.25fF
C3 VPWR VPB 0.76fF
C4 VGND A 0.16fF
C5 VPWR VGND 0.02fF
C6 Y A 1.17fF
C7 VPWR Y 1.39fF
C8 VPB Y 0.47fF
C9 VGND VNB 0.55fF
C10 Y VNB -0.02fF
C11 VPWR VNB -0.25fF
C12 A VNB 0.70fF
C13 VPB VNB 0.69fF
.ends

.subckt extr_sky130_fd_sc_hd__clkinv_16 A VGND VPWR Y VNB VPB
X0 VGND A Y VNB sky130_fd_pr__nfet_01v8 ad=1.0605e+12p pd=1.261e+07u as=1.0059e+12p ps=1.151e+07u w=420000u l=150000u
X1 Y A VPWR VPB sky130_fd_pr__pfet_01v8_hvt ad=3.515e+12p pd=3.103e+07u as=3.655e+12p ps=3.331e+07u w=1e+06u l=150000u
X2 VPWR A Y VPB sky130_fd_pr__pfet_01v8_hvt ad=0p pd=0u as=0p ps=0u w=1e+06u l=150000u
X3 Y A VPWR VPB sky130_fd_pr__pfet_01v8_hvt ad=0p pd=0u as=0p ps=0u w=1e+06u l=150000u
X4 VGND A Y VNB sky130_fd_pr__nfet_01v8 ad=0p pd=0u as=0p ps=0u w=420000u l=150000u
X5 VPWR A Y VPB sky130_fd_pr__pfet_01v8_hvt ad=0p pd=0u as=0p ps=0u w=1e+06u l=150000u
X6 Y A VGND VNB sky130_fd_pr__nfet_01v8 ad=0p pd=0u as=0p ps=0u w=420000u l=150000u
X7 VGND A Y VNB sky130_fd_pr__nfet_01v8 ad=0p pd=0u as=0p ps=0u w=420000u l=150000u
X8 VPWR A Y VPB sky130_fd_pr__pfet_01v8_hvt ad=0p pd=0u as=0p ps=0u w=1e+06u l=150000u
X9 VPWR A Y VPB sky130_fd_pr__pfet_01v8_hvt ad=0p pd=0u as=0p ps=0u w=1e+06u l=150000u
X10 Y A VGND VNB sky130_fd_pr__nfet_01v8 ad=0p pd=0u as=0p ps=0u w=420000u l=150000u
X11 Y A VPWR VPB sky130_fd_pr__pfet_01v8_hvt ad=0p pd=0u as=0p ps=0u w=1e+06u l=150000u
X12 VPWR A Y VPB sky130_fd_pr__pfet_01v8_hvt ad=0p pd=0u as=0p ps=0u w=1e+06u l=150000u
X13 VGND A Y VNB sky130_fd_pr__nfet_01v8 ad=0p pd=0u as=0p ps=0u w=420000u l=150000u
X14 Y A VPWR VPB sky130_fd_pr__pfet_01v8_hvt ad=0p pd=0u as=0p ps=0u w=1e+06u l=150000u
X15 VPWR A Y VPB sky130_fd_pr__pfet_01v8_hvt ad=0p pd=0u as=0p ps=0u w=1e+06u l=150000u
X16 Y A VPWR VPB sky130_fd_pr__pfet_01v8_hvt ad=0p pd=0u as=0p ps=0u w=1e+06u l=150000u
X17 Y A VPWR VPB sky130_fd_pr__pfet_01v8_hvt ad=0p pd=0u as=0p ps=0u w=1e+06u l=150000u
X18 Y A VGND VNB sky130_fd_pr__nfet_01v8 ad=0p pd=0u as=0p ps=0u w=420000u l=150000u
X19 VGND A Y VNB sky130_fd_pr__nfet_01v8 ad=0p pd=0u as=0p ps=0u w=420000u l=150000u
X20 Y A VGND VNB sky130_fd_pr__nfet_01v8 ad=0p pd=0u as=0p ps=0u w=420000u l=150000u
X21 VGND A Y VNB sky130_fd_pr__nfet_01v8 ad=0p pd=0u as=0p ps=0u w=420000u l=150000u
X22 Y A VPWR VPB sky130_fd_pr__pfet_01v8_hvt ad=0p pd=0u as=0p ps=0u w=1e+06u l=150000u
X23 VPWR A Y VPB sky130_fd_pr__pfet_01v8_hvt ad=0p pd=0u as=0p ps=0u w=1e+06u l=150000u
X24 Y A VPWR VPB sky130_fd_pr__pfet_01v8_hvt ad=0p pd=0u as=0p ps=0u w=1e+06u l=150000u
X25 Y A VPWR VPB sky130_fd_pr__pfet_01v8_hvt ad=0p pd=0u as=0p ps=0u w=1e+06u l=150000u
X26 VPWR A Y VPB sky130_fd_pr__pfet_01v8_hvt ad=0p pd=0u as=0p ps=0u w=1e+06u l=150000u
X27 Y A VGND VNB sky130_fd_pr__nfet_01v8 ad=0p pd=0u as=0p ps=0u w=420000u l=150000u
X28 Y A VPWR VPB sky130_fd_pr__pfet_01v8_hvt ad=0p pd=0u as=0p ps=0u w=1e+06u l=150000u
X29 VPWR A Y VPB sky130_fd_pr__pfet_01v8_hvt ad=0p pd=0u as=0p ps=0u w=1e+06u l=150000u
X30 VPWR A Y VPB sky130_fd_pr__pfet_01v8_hvt ad=0p pd=0u as=0p ps=0u w=1e+06u l=150000u
X31 Y A VGND VNB sky130_fd_pr__nfet_01v8 ad=0p pd=0u as=0p ps=0u w=420000u l=150000u
X32 VGND A Y VNB sky130_fd_pr__nfet_01v8 ad=0p pd=0u as=0p ps=0u w=420000u l=150000u
X33 VPWR A Y VPB sky130_fd_pr__pfet_01v8_hvt ad=0p pd=0u as=0p ps=0u w=1e+06u l=150000u
X34 Y A VGND VNB sky130_fd_pr__nfet_01v8 ad=0p pd=0u as=0p ps=0u w=420000u l=150000u
X35 Y A VPWR VPB sky130_fd_pr__pfet_01v8_hvt ad=0p pd=0u as=0p ps=0u w=1e+06u l=150000u
X36 Y A VGND VNB sky130_fd_pr__nfet_01v8 ad=0p pd=0u as=0p ps=0u w=420000u l=150000u
X37 VPWR A Y VPB sky130_fd_pr__pfet_01v8_hvt ad=0p pd=0u as=0p ps=0u w=1e+06u l=150000u
X38 Y A VPWR VPB sky130_fd_pr__pfet_01v8_hvt ad=0p pd=0u as=0p ps=0u w=1e+06u l=150000u
X39 VGND A Y VNB sky130_fd_pr__nfet_01v8 ad=0p pd=0u as=0p ps=0u w=420000u l=150000u
C0 A VGND 0.87fF
C1 VPB Y 1.61fF
C2 VPWR Y 4.93fF
C3 VGND Y 1.83fF
C4 A Y 2.06fF
C5 VPWR VPB 2.42fF
C6 VPWR VGND 0.08fF
C7 VPB A 1.33fF
C8 VPWR A 0.81fF
C9 VGND VNB 1.80fF
C10 Y VNB -1.03fF
C11 VPWR VNB -0.94fF
C12 A VNB 2.35fF
C13 VPB VNB 2.20fF
.ends

.subckt extr_sky130_fd_sc_hd__clkbuf_16 A VGND VPWR X a_110_47# VNB VPB
X0 VPWR A a_110_47# VPB sky130_fd_pr__pfet_01v8_hvt ad=3.045e+12p pd=2.809e+07u as=5.6e+11p ps=5.12e+06u w=1e+06u l=150000u