* NGSPICE file created from user_analog_project_wrapper.ext - technology: sky130A

.subckt sky130_fd_sc_hd__and2_1 A B VGND VPWR X VNB VPB
X0 VPWR B a_59_75# VPB sky130_fd_pr__pfet_01v8_hvt ad=4.507e+11p pd=4.18e+06u as=1.134e+11p ps=1.38e+06u w=420000u l=150000u
X1 X a_59_75# VPWR VPB sky130_fd_pr__pfet_01v8_hvt ad=4.75e+11p pd=2.95e+06u as=0p ps=0u w=1e+06u l=150000u
X2 VGND B a_145_75# VNB sky130_fd_pr__nfet_01v8 ad=2.236e+11p pd=2.08e+06u as=1.134e+11p ps=1.38e+06u w=420000u l=150000u
X3 a_59_75# A VPWR VPB sky130_fd_pr__pfet_01v8_hvt ad=0p pd=0u as=0p ps=0u w=420000u l=150000u
X4 X a_59_75# VGND VNB sky130_fd_pr__nfet_01v8 ad=1.82e+11p pd=1.86e+06u as=0p ps=0u w=650000u l=150000u
X5 a_145_75# A a_59_75# VNB sky130_fd_pr__nfet_01v8 ad=0p pd=0u as=1.176e+11p ps=1.4e+06u w=420000u l=150000u
.ends

.subckt sky130_fd_sc_hd__clkinv_2 A VGND VPWR Y VNB VPB
X0 Y A VGND VNB sky130_fd_pr__nfet_01v8 ad=1.176e+11p pd=1.4e+06u as=2.205e+11p ps=2.73e+06u w=420000u l=150000u
X1 Y A VPWR VPB sky130_fd_pr__pfet_01v8_hvt ad=5.45e+11p pd=5.09e+06u as=5.45e+11p ps=5.09e+06u w=1e+06u l=150000u
X2 VPWR A Y VPB sky130_fd_pr__pfet_01v8_hvt ad=0p pd=0u as=0p ps=0u w=1e+06u l=150000u
X3 VGND A Y VNB sky130_fd_pr__nfet_01v8 ad=0p pd=0u as=0p ps=0u w=420000u l=150000u
X4 VPWR A Y VPB sky130_fd_pr__pfet_01v8_hvt ad=0p pd=0u as=0p ps=0u w=1e+06u l=150000u
.ends

.subckt sky130_fd_sc_hd__clkbuf_2 A VGND VPWR X VNB VPB
X0 VPWR A a_27_47# VPB sky130_fd_pr__pfet_01v8_hvt ad=5.85e+11p pd=5.17e+06u as=2.65e+11p ps=2.53e+06u w=1e+06u l=150000u
X1 VPWR a_27_47# X VPB sky130_fd_pr__pfet_01v8_hvt ad=0p pd=0u as=2.7e+11p ps=2.54e+06u w=1e+06u l=150000u
X2 VGND A a_27_47# VNB sky130_fd_pr__nfet_01v8 ad=2.457e+11p pd=2.85e+06u as=1.113e+11p ps=1.37e+06u w=420000u l=150000u
X3 X a_27_47# VPWR VPB sky130_fd_pr__pfet_01v8_hvt ad=0p pd=0u as=0p ps=0u w=1e+06u l=150000u
X4 X a_27_47# VGND VNB sky130_fd_pr__nfet_01v8 ad=1.134e+11p pd=1.38e+06u as=0p ps=0u w=420000u l=150000u
X5 VGND a_27_47# X VNB sky130_fd_pr__nfet_01v8 ad=0p pd=0u as=0p ps=0u w=420000u l=150000u
.ends

.subckt sky130_fd_sc_hd__mux4_1 A0 A1 A2 A3 S0 S1 VGND VPWR X VNB VPB
X0 a_277_47# a_247_21# a_27_413# VPB sky130_fd_pr__pfet_01v8_hvt ad=2.226e+11p pd=2.74e+06u as=2.184e+11p ps=2.72e+06u w=420000u l=150000u
X1 VGND S0 a_247_21# VNB sky130_fd_pr__nfet_01v8 ad=6.142e+11p pd=7.3e+06u as=1.092e+11p ps=1.36e+06u w=420000u l=150000u
X2 a_834_97# a_247_21# a_750_97# VNB sky130_fd_pr__nfet_01v8 ad=2.1715e+11p pd=2.72e+06u as=2.226e+11p ps=2.74e+06u w=420000u l=150000u
X3 VGND A3 a_668_97# VNB sky130_fd_pr__nfet_01v8 ad=0p pd=0u as=2.171e+11p ps=2.72e+06u w=420000u l=150000u
X4 a_1290_413# S1 VPWR VPB sky130_fd_pr__pfet_01v8_hvt ad=1.092e+11p pd=1.36e+06u as=7.039e+11p ps=8e+06u w=420000u l=150000u
X5 a_834_97# A2 VGND VNB sky130_fd_pr__nfet_01v8 ad=0p pd=0u as=0p ps=0u w=420000u l=150000u
X6 a_750_97# S0 a_757_363# VPB sky130_fd_pr__pfet_01v8_hvt ad=3.822e+11p pd=3.5e+06u as=2.171e+11p ps=2.72e+06u w=420000u l=150000u
X7 a_27_47# S0 a_277_47# VNB sky130_fd_pr__nfet_01v8 ad=2.184e+11p pd=2.72e+06u as=2.7965e+11p ps=3.21e+06u w=420000u l=150000u
X8 X a_1478_413# VGND VNB sky130_fd_pr__nfet_01v8 ad=1.69e+11p pd=1.82e+06u as=0p ps=0u w=650000u l=150000u
X9 VPWR A1 a_27_413# VPB sky130_fd_pr__pfet_01v8_hvt ad=0p pd=0u as=0p ps=0u w=420000u l=150000u
X10 VPWR S0 a_247_21# VPB sky130_fd_pr__pfet_01v8_hvt ad=0p pd=0u as=1.083e+11p ps=1.36e+06u w=420000u l=150000u
X11 X a_1478_413# VPWR VPB sky130_fd_pr__pfet_01v8_hvt ad=2.6e+11p pd=2.52e+06u as=0p ps=0u w=1e+06u l=150000u
X12 a_193_47# A0 VGND VNB sky130_fd_pr__nfet_01v8 ad=1.134e+11p pd=1.38e+06u as=0p ps=0u w=420000u l=150000u
X13 a_750_97# a_1290_413# a_1478_413# VPB sky130_fd_pr__pfet_01v8_hvt ad=0p pd=0u as=1.84175e+11p ps=1.98e+06u w=420000u l=150000u
X14 a_1478_413# S1 a_277_47# VPB sky130_fd_pr__pfet_01v8_hvt ad=0p pd=0u as=0p ps=0u w=420000u l=150000u
X15 a_1290_413# S1 VGND VNB sky130_fd_pr__nfet_01v8 ad=1.092e+11p pd=1.36e+06u as=0p ps=0u w=420000u l=150000u
X16 a_277_47# a_247_21# a_193_47# VNB sky130_fd_pr__nfet_01v8 ad=0p pd=0u as=0p ps=0u w=420000u l=150000u
X17 a_750_97# S0 a_668_97# VNB sky130_fd_pr__nfet_01v8 ad=0p pd=0u as=0p ps=0u w=420000u l=150000u
X18 a_923_363# a_247_21# a_750_97# VPB sky130_fd_pr__pfet_01v8_hvt ad=1.8025e+11p pd=1.99e+06u as=0p ps=0u w=420000u l=150000u
X19 a_757_363# A2 VPWR VPB sky130_fd_pr__pfet_01v8_hvt ad=0p pd=0u as=0p ps=0u w=420000u l=150000u
X20 VPWR A3 a_923_363# VPB sky130_fd_pr__pfet_01v8_hvt ad=0p pd=0u as=0p ps=0u w=420000u l=150000u
X21 a_277_47# a_1290_413# a_1478_413# VNB sky130_fd_pr__nfet_01v8 ad=0p pd=0u as=3.0205e+11p ps=2.57e+06u w=420000u l=150000u
X22 a_193_413# A0 VPWR VPB sky130_fd_pr__pfet_01v8_hvt ad=2.171e+11p pd=2.72e+06u as=0p ps=0u w=420000u l=150000u
X23 a_193_413# S0 a_277_47# VPB sky130_fd_pr__pfet_01v8_hvt ad=0p pd=0u as=0p ps=0u w=420000u l=150000u
X24 VGND A1 a_27_47# VNB sky130_fd_pr__nfet_01v8 ad=0p pd=0u as=0p ps=0u w=420000u l=150000u
X25 a_1478_413# S1 a_750_97# VNB sky130_fd_pr__nfet_01v8 ad=0p pd=0u as=0p ps=0u w=420000u l=150000u
.ends

.subckt n-leg_ctrl_fet_2 a_n125_n65# a_n81_n153# a_n33_n65# VSUBS
X0 a_n33_n65# a_n81_n153# a_n125_n65# VSUBS sky130_fd_pr__nfet_01v8 ad=4.29e+11p pd=3.92e+06u as=4.03e+11p ps=3.84e+06u w=650000u l=150000u
X1 a_n33_n65# a_n81_n153# a_n125_n65# VSUBS sky130_fd_pr__nfet_01v8 ad=0p pd=0u as=0p ps=0u w=650000u l=150000u
X2 a_n125_n65# a_n81_n153# a_n33_n65# VSUBS sky130_fd_pr__nfet_01v8 ad=0p pd=0u as=0p ps=0u w=650000u l=150000u
.ends

.subckt n-leg_ctrl_fet_0 a_n125_n153# a_n125_n65# a_n33_n65# VSUBS
X0 a_n125_n65# a_n125_n153# a_n33_n65# VSUBS sky130_fd_pr__nfet_01v8 ad=3.4255e+12p pd=3.264e+07u as=3.432e+12p ps=3.136e+07u w=650000u l=150000u
X1 a_n33_n65# a_n125_n153# a_n125_n65# VSUBS sky130_fd_pr__nfet_01v8 ad=0p pd=0u as=0p ps=0u w=650000u l=150000u
X2 a_n33_n65# a_n125_n153# a_n125_n65# VSUBS sky130_fd_pr__nfet_01v8 ad=0p pd=0u as=0p ps=0u w=650000u l=150000u
X3 a_n125_n65# a_n125_n153# a_n33_n65# VSUBS sky130_fd_pr__nfet_01v8 ad=0p pd=0u as=0p ps=0u w=650000u l=150000u
X4 a_n33_n65# a_n125_n153# a_n125_n65# VSUBS sky130_fd_pr__nfet_01v8 ad=0p pd=0u as=0p ps=0u w=650000u l=150000u
X5 a_n33_n65# a_n125_n153# a_n125_n65# VSUBS sky130_fd_pr__nfet_01v8 ad=0p pd=0u as=0p ps=0u w=650000u l=150000u
X6 a_n125_n65# a_n125_n153# a_n33_n65# VSUBS sky130_fd_pr__nfet_01v8 ad=0p pd=0u as=0p ps=0u w=650000u l=150000u
X7 a_n33_n65# a_n125_n153# a_n125_n65# VSUBS sky130_fd_pr__nfet_01v8 ad=0p pd=0u as=0p ps=0u w=650000u l=150000u
X8 a_n33_n65# a_n125_n153# a_n125_n65# VSUBS sky130_fd_pr__nfet_01v8 ad=0p pd=0u as=0p ps=0u w=650000u l=150000u
X9 a_n125_n65# a_n125_n153# a_n33_n65# VSUBS sky130_fd_pr__nfet_01v8 ad=0p pd=0u as=0p ps=0u w=650000u l=150000u
X10 a_n33_n65# a_n125_n153# a_n125_n65# VSUBS sky130_fd_pr__nfet_01v8 ad=0p pd=0u as=0p ps=0u w=650000u l=150000u
X11 a_n125_n65# a_n125_n153# a_n33_n65# VSUBS sky130_fd_pr__nfet_01v8 ad=0p pd=0u as=0p ps=0u w=650000u l=150000u
X12 a_n33_n65# a_n125_n153# a_n125_n65# VSUBS sky130_fd_pr__nfet_01v8 ad=0p pd=0u as=0p ps=0u w=650000u l=150000u
X13 a_n125_n65# a_n125_n153# a_n33_n65# VSUBS sky130_fd_pr__nfet_01v8 ad=0p pd=0u as=0p ps=0u w=650000u l=150000u
X14 a_n125_n65# a_n125_n153# a_n33_n65# VSUBS sky130_fd_pr__nfet_01v8 ad=0p pd=0u as=0p ps=0u w=650000u l=150000u
X15 a_n33_n65# a_n125_n153# a_n125_n65# VSUBS sky130_fd_pr__nfet_01v8 ad=0p pd=0u as=0p ps=0u w=650000u l=150000u
X16 a_n33_n65# a_n125_n153# a_n125_n65# VSUBS sky130_fd_pr__nfet_01v8 ad=0p pd=0u as=0p ps=0u w=650000u l=150000u
X17 a_n125_n65# a_n125_n153# a_n33_n65# VSUBS sky130_fd_pr__nfet_01v8 ad=0p pd=0u as=0p ps=0u w=650000u l=150000u
X18 a_n33_n65# a_n125_n153# a_n125_n65# VSUBS sky130_fd_pr__nfet_01v8 ad=0p pd=0u as=0p ps=0u w=650000u l=150000u
X19 a_n125_n65# a_n125_n153# a_n33_n65# VSUBS sky130_fd_pr__nfet_01v8 ad=0p pd=0u as=0p ps=0u w=650000u l=150000u
X20 a_n33_n65# a_n125_n153# a_n125_n65# VSUBS sky130_fd_pr__nfet_01v8 ad=0p pd=0u as=0p ps=0u w=650000u l=150000u
X21 a_n125_n65# a_n125_n153# a_n33_n65# VSUBS sky130_fd_pr__nfet_01v8 ad=0p pd=0u as=0p ps=0u w=650000u l=150000u
X22 a_n125_n65# a_n125_n153# a_n33_n65# VSUBS sky130_fd_pr__nfet_01v8 ad=0p pd=0u as=0p ps=0u w=650000u l=150000u
X23 a_n33_n65# a_n125_n153# a_n125_n65# VSUBS sky130_fd_pr__nfet_01v8 ad=0p pd=0u as=0p ps=0u w=650000u l=150000u
X24 a_n33_n65# a_n125_n153# a_n125_n65# VSUBS sky130_fd_pr__nfet_01v8 ad=0p pd=0u as=0p ps=0u w=650000u l=150000u
X25 a_n125_n65# a_n125_n153# a_n33_n65# VSUBS sky130_fd_pr__nfet_01v8 ad=0p pd=0u as=0p ps=0u w=650000u l=150000u
X26 a_n125_n65# a_n125_n153# a_n33_n65# VSUBS sky130_fd_pr__nfet_01v8 ad=0p pd=0u as=0p ps=0u w=650000u l=150000u
X27 a_n33_n65# a_n125_n153# a_n125_n65# VSUBS sky130_fd_pr__nfet_01v8 ad=0p pd=0u as=0p ps=0u w=650000u l=150000u
X28 a_n125_n65# a_n125_n153# a_n33_n65# VSUBS sky130_fd_pr__nfet_01v8 ad=0p pd=0u as=0p ps=0u w=650000u l=150000u
X29 a_n125_n65# a_n125_n153# a_n33_n65# VSUBS sky130_fd_pr__nfet_01v8 ad=0p pd=0u as=0p ps=0u w=650000u l=150000u
X30 a_n33_n65# a_n125_n153# a_n125_n65# VSUBS sky130_fd_pr__nfet_01v8 ad=0p pd=0u as=0p ps=0u w=650000u l=150000u
X31 a_n125_n65# a_n125_n153# a_n33_n65# VSUBS sky130_fd_pr__nfet_01v8 ad=0p pd=0u as=0p ps=0u w=650000u l=150000u
.ends

.subckt n-leg_ctrl_fet_3 a_15_n19# a_n73_n19# a_n33_n107# VSUBS
X0 a_15_n19# a_n33_n107# a_n73_n19# VSUBS sky130_fd_pr__nfet_01v8 ad=1.45e+11p pd=1.58e+06u as=1.45e+11p ps=1.58e+06u w=500000u l=150000u
.ends

.subckt n-leg_ctrl_fet_1 a_n125_n153# a_n125_n65# a_n33_n65# VSUBS
X0 a_n33_n65# a_n125_n153# a_n125_n65# VSUBS sky130_fd_pr__nfet_01v8 ad=8.58e+11p pd=7.84e+06u as=1.0075e+12p ps=9.6e+06u w=650000u l=150000u
X1 a_n33_n65# a_n125_n153# a_n125_n65# VSUBS sky130_fd_pr__nfet_01v8 ad=0p pd=0u as=0p ps=0u w=650000u l=150000u
X2 a_n33_n65# a_n125_n153# a_n125_n65# VSUBS sky130_fd_pr__nfet_01v8 ad=0p pd=0u as=0p ps=0u w=650000u l=150000u
X3 a_n125_n65# a_n125_n153# a_n33_n65# VSUBS sky130_fd_pr__nfet_01v8 ad=0p pd=0u as=0p ps=0u w=650000u l=150000u
X4 a_n125_n65# a_n125_n153# a_n33_n65# VSUBS sky130_fd_pr__nfet_01v8 ad=0p pd=0u as=0p ps=0u w=650000u l=150000u
X5 a_n33_n65# a_n125_n153# a_n125_n65# VSUBS sky130_fd_pr__nfet_01v8 ad=0p pd=0u as=0p ps=0u w=650000u l=150000u
X6 a_n125_n65# a_n125_n153# a_n33_n65# VSUBS sky130_fd_pr__nfet_01v8 ad=0p pd=0u as=0p ps=0u w=650000u l=150000u
X7 a_n125_n65# a_n125_n153# a_n33_n65# VSUBS sky130_fd_pr__nfet_01v8 ad=0p pd=0u as=0p ps=0u w=650000u l=150000u
.ends

.subckt n-leg_polyres a_n33_170# a_n33_n243#
R0 a_n33_n243# a_n33_170# sky130_fd_pr__res_generic_po w=330000u l=1.7e+06u
.ends

.subckt n-leg pd_ctrl DQ cal_ctrl[0] cal_ctrl[1] cal_ctrl[2] cal_ctrl[3] li_1854_527#
+ GND
Xn-leg_ctrl_fet_2_0 DQ cal_ctrl[2] a_1976_47# GND n-leg_ctrl_fet_2
Xn-leg_ctrl_fet_0_0 cal_ctrl[0] DQ a_1976_47# GND n-leg_ctrl_fet_0
Xn-leg_ctrl_fet_3_0 DQ a_1976_47# cal_ctrl[3] GND n-leg_ctrl_fet_3
Xn-leg_ctrl_fet_1_0 cal_ctrl[1] a_1976_47# DQ GND n-leg_ctrl_fet_1
Xn-leg_polyres_0 a_1976_47# DQ n-leg_polyres
X0 GND pd_ctrl a_1976_47# GND sky130_fd_pr__nfet_01v8 ad=1.20215e+13p pd=2.595e+06u as=9.6163e+12p ps=9.0425e+07u w=650000u l=150000u
X1 GND pd_ctrl a_1976_47# GND sky130_fd_pr__nfet_01v8 ad=0p pd=0u as=0p ps=0u w=650000u l=150000u
X2 GND pd_ctrl a_1976_47# GND sky130_fd_pr__nfet_01v8 ad=0p pd=0u as=0p ps=0u w=650000u l=150000u
X3 GND pd_ctrl a_1976_47# GND sky130_fd_pr__nfet_01v8 ad=0p pd=0u as=0p ps=0u w=650000u l=150000u
X4 GND pd_ctrl a_1976_47# GND sky130_fd_pr__nfet_01v8 ad=0p pd=0u as=0p ps=0u w=650000u l=150000u
X5 GND pd_ctrl a_1976_47# GND sky130_fd_pr__nfet_01v8 ad=0p pd=0u as=0p ps=0u w=650000u l=150000u
X6 a_1976_47# pd_ctrl GND GND sky130_fd_pr__nfet_01v8 ad=0p pd=0u as=0p ps=0u w=650000u l=150000u
X7 a_1976_47# pd_ctrl GND GND sky130_fd_pr__nfet_01v8 ad=0p pd=0u as=0p ps=0u w=650000u l=150000u
X8 GND pd_ctrl a_1976_47# GND sky130_fd_pr__nfet_01v8 ad=0p pd=0u as=0p ps=0u w=650000u l=150000u
X9 a_1976_47# pd_ctrl GND GND sky130_fd_pr__nfet_01v8 ad=0p pd=0u as=0p ps=0u w=650000u l=150000u
X10 GND pd_ctrl a_1976_47# GND sky130_fd_pr__nfet_01v8 ad=0p pd=0u as=0p ps=0u w=650000u l=150000u
X11 a_1976_47# pd_ctrl GND GND sky130_fd_pr__nfet_01v8 ad=0p pd=0u as=0p ps=0u w=650000u l=150000u
X12 a_1976_47# pd_ctrl GND GND sky130_fd_pr__nfet_01v8 ad=0p pd=0u as=0p ps=0u w=650000u l=150000u
X13 a_1976_47# pd_ctrl GND GND sky130_fd_pr__nfet_01v8 ad=0p pd=0u as=0p ps=0u w=650000u l=150000u
X14 GND pd_ctrl a_1976_47# GND sky130_fd_pr__nfet_01v8 ad=0p pd=0u as=0p ps=0u w=650000u l=150000u
X15 GND pd_ctrl a_1976_47# GND sky130_fd_pr__nfet_01v8 ad=0p pd=0u as=0p ps=0u w=650000u l=150000u
X16 a_1976_47# pd_ctrl GND GND sky130_fd_pr__nfet_01v8 ad=0p pd=0u as=0p ps=0u w=650000u l=150000u
X17 GND pd_ctrl a_1976_47# GND sky130_fd_pr__nfet_01v8 ad=0p pd=0u as=0p ps=0u w=650000u l=150000u
X18 a_1976_47# pd_ctrl GND GND sky130_fd_pr__nfet_01v8 ad=0p pd=0u as=0p ps=0u w=650000u l=150000u
X19 a_1976_47# pd_ctrl GND GND sky130_fd_pr__nfet_01v8 ad=0p pd=0u as=0p ps=0u w=650000u l=150000u
X20 a_1976_47# pd_ctrl GND GND sky130_fd_pr__nfet_01v8 ad=0p pd=0u as=0p ps=0u w=650000u l=150000u
X21 a_1976_47# pd_ctrl GND GND sky130_fd_pr__nfet_01v8 ad=0p pd=0u as=0p ps=0u w=650000u l=150000u
X22 a_1976_47# pd_ctrl GND GND sky130_fd_pr__nfet_01v8 ad=0p pd=0u as=0p ps=0u w=650000u l=150000u
X23 a_1976_47# pd_ctrl GND GND sky130_fd_pr__nfet_01v8 ad=0p pd=0u as=0p ps=0u w=650000u l=150000u
X24 a_1976_47# pd_ctrl GND GND sky130_fd_pr__nfet_01v8 ad=0p pd=0u as=0p ps=0u w=650000u l=150000u
X25 a_1976_47# pd_ctrl GND GND sky130_fd_pr__nfet_01v8 ad=0p pd=0u as=0p ps=0u w=650000u l=150000u
X26 a_1976_47# pd_ctrl GND GND sky130_fd_pr__nfet_01v8 ad=0p pd=0u as=0p ps=0u w=650000u l=150000u
X27 a_1976_47# pd_ctrl GND GND sky130_fd_pr__nfet_01v8 ad=0p pd=0u as=0p ps=0u w=650000u l=150000u
X28 a_1976_47# pd_ctrl GND GND sky130_fd_pr__nfet_01v8 ad=0p pd=0u as=0p ps=0u w=650000u l=150000u
X29 a_1976_47# pd_ctrl GND GND sky130_fd_pr__nfet_01v8 ad=0p pd=0u as=0p ps=0u w=650000u l=150000u
X30 GND pd_ctrl a_1976_47# GND sky130_fd_pr__nfet_01v8 ad=0p pd=0u as=0p ps=0u w=650000u l=150000u
X31 a_1976_47# pd_ctrl GND GND sky130_fd_pr__nfet_01v8 ad=0p pd=0u as=0p ps=0u w=650000u l=150000u
X32 a_1976_47# pd_ctrl GND GND sky130_fd_pr__nfet_01v8 ad=0p pd=0u as=0p ps=0u w=650000u l=150000u
X33 a_1976_47# pd_ctrl GND GND sky130_fd_pr__nfet_01v8 ad=0p pd=0u as=0p ps=0u w=650000u l=150000u
X34 GND pd_ctrl a_1976_47# GND sky130_fd_pr__nfet_01v8 ad=0p pd=0u as=0p ps=0u w=650000u l=150000u
X35 GND pd_ctrl a_1976_47# GND sky130_fd_pr__nfet_01v8 ad=0p pd=0u as=0p ps=0u w=650000u l=150000u
X36 GND pd_ctrl a_1976_47# GND sky130_fd_pr__nfet_01v8 ad=0p pd=0u as=0p ps=0u w=650000u l=150000u
X37 a_1976_47# pd_ctrl GND GND sky130_fd_pr__nfet_01v8 ad=0p pd=0u as=0p ps=0u w=650000u l=150000u
X38 a_1976_47# pd_ctrl GND GND sky130_fd_pr__nfet_01v8 ad=0p pd=0u as=0p ps=0u w=650000u l=150000u
X39 GND pd_ctrl a_1976_47# GND sky130_fd_pr__nfet_01v8 ad=0p pd=0u as=0p ps=0u w=650000u l=150000u
X40 GND pd_ctrl a_1976_47# GND sky130_fd_pr__nfet_01v8 ad=0p pd=0u as=0p ps=0u w=650000u l=150000u
X41 GND pd_ctrl a_1976_47# GND sky130_fd_pr__nfet_01v8 ad=0p pd=0u as=0p ps=0u w=650000u l=150000u
X42 GND pd_ctrl a_1976_47# GND sky130_fd_pr__nfet_01v8 ad=0p pd=0u as=0p ps=0u w=650000u l=150000u
X43 GND pd_ctrl a_1976_47# GND sky130_fd_pr__nfet_01v8 ad=0p pd=0u as=0p ps=0u w=650000u l=150000u
X44 GND pd_ctrl a_1976_47# GND sky130_fd_pr__nfet_01v8 ad=0p pd=0u as=0p ps=0u w=650000u l=150000u
X45 GND pd_ctrl a_1976_47# GND sky130_fd_pr__nfet_01v8 ad=0p pd=0u as=0p ps=0u w=650000u l=150000u
X46 GND pd_ctrl a_1976_47# GND sky130_fd_pr__nfet_01v8 ad=0p pd=0u as=0p ps=0u w=650000u l=150000u
X47 GND pd_ctrl a_1976_47# GND sky130_fd_pr__nfet_01v8 ad=0p pd=0u as=0p ps=0u w=650000u l=150000u
.ends

.subckt p-leg_fet_16 a_n1053_n161# a_n1053_n64# a_995_n64# a_n285_n64# a_n541_n64#
+ a_483_n64# a_739_n64# a_n29_n64# a_n925_n64# a_227_n64# w_n1089_n100# a_n797_n64#
X0 a_n925_n64# a_n1053_n161# a_n541_n64# w_n1089_n100# sky130_fd_pr__pfet_01v8_lvt ad=2.32e+12p pd=2.064e+07u as=2.9e+11p ps=2.58e+06u w=1e+06u l=350000u
X1 a_n797_n64# a_n1053_n161# a_n925_n64# w_n1089_n100# sky130_fd_pr__pfet_01v8_lvt ad=2.9e+11p pd=2.58e+06u as=0p ps=0u w=1e+06u l=350000u
X2 a_n925_n64# a_n1053_n161# a_227_n64# w_n1089_n100# sky130_fd_pr__pfet_01v8_lvt ad=0p pd=0u as=2.9e+11p ps=2.58e+06u w=1e+06u l=350000u
X3 a_739_n64# a_n1053_n161# a_n925_n64# w_n1089_n100# sky130_fd_pr__pfet_01v8_lvt ad=2.9e+11p pd=2.58e+06u as=0p ps=0u w=1e+06u l=350000u
X4 a_n925_n64# a_n1053_n161# a_n29_n64# w_n1089_n100# sky130_fd_pr__pfet_01v8_lvt ad=0p pd=0u as=2.9e+11p ps=2.58e+06u w=1e+06u l=350000u
X5 a_n285_n64# a_n1053_n161# a_n925_n64# w_n1089_n100# sky130_fd_pr__pfet_01v8_lvt ad=2.9e+11p pd=2.58e+06u as=0p ps=0u w=1e+06u l=350000u
X6 a_n925_n64# a_n1053_n161# a_n797_n64# w_n1089_n100# sky130_fd_pr__pfet_01v8_lvt ad=0p pd=0u as=0p ps=0u w=1e+06u l=350000u
X7 a_227_n64# a_n1053_n161# a_n925_n64# w_n1089_n100# sky130_fd_pr__pfet_01v8_lvt ad=0p pd=0u as=0p ps=0u w=1e+06u l=350000u
X8 a_n925_n64# a_n1053_n161# a_483_n64# w_n1089_n100# sky130_fd_pr__pfet_01v8_lvt ad=0p pd=0u as=2.9e+11p ps=2.58e+06u w=1e+06u l=350000u
X9 a_995_n64# a_n1053_n161# a_n925_n64# w_n1089_n100# sky130_fd_pr__pfet_01v8_lvt ad=2.9e+11p pd=2.58e+06u as=0p ps=0u w=1e+06u l=350000u
X10 a_n925_n64# a_n1053_n161# a_n1053_n64# w_n1089_n100# sky130_fd_pr__pfet_01v8_lvt ad=0p pd=0u as=2.9e+11p ps=2.58e+06u w=1e+06u l=350000u
X11 a_n925_n64# a_n1053_n161# a_739_n64# w_n1089_n100# sky130_fd_pr__pfet_01v8_lvt ad=0p pd=0u as=0p ps=0u w=1e+06u l=350000u
X12 a_n541_n64# a_n1053_n161# a_n925_n64# w_n1089_n100# sky130_fd_pr__pfet_01v8_lvt ad=0p pd=0u as=0p ps=0u w=1e+06u l=350000u
X13 a_n925_n64# a_n1053_n161# a_n285_n64# w_n1089_n100# sky130_fd_pr__pfet_01v8_lvt ad=0p pd=0u as=0p ps=0u w=1e+06u l=350000u
X14 a_n29_n64# a_n1053_n161# a_n925_n64# w_n1089_n100# sky130_fd_pr__pfet_01v8_lvt ad=0p pd=0u as=0p ps=0u w=1e+06u l=350000u
X15 a_483_n64# a_n1053_n161# a_n925_n64# w_n1089_n100# sky130_fd_pr__pfet_01v8_lvt ad=0p pd=0u as=0p ps=0u w=1e+06u l=350000u
.ends

.subckt p-leg_polyres a_n33_n253# a_n33_180#
R0 a_n33_n253# a_n33_180# sky130_fd_pr__res_generic_po w=330000u l=1.8e+06u
.ends

.subckt p-leg_6 a_n1053_n64# a_n285_n64# a_n541_n64# a_n995_n161# a_n925_n64# w_n1089_n100#
+ a_n797_n64#
X0 a_n925_n64# a_n995_n161# a_n541_n64# w_n1089_n100# sky130_fd_pr__pfet_01v8_lvt ad=8.7e+11p pd=7.74e+06u as=2.9e+11p ps=2.58e+06u w=1e+06u l=350000u
X1 a_n797_n64# a_n995_n161# a_n925_n64# w_n1089_n100# sky130_fd_pr__pfet_01v8_lvt ad=2.9e+11p pd=2.58e+06u as=0p ps=0u w=1e+06u l=350000u
X2 a_n285_n64# a_n995_n161# a_n925_n64# w_n1089_n100# sky130_fd_pr__pfet_01v8_lvt ad=2.9e+11p pd=2.58e+06u as=0p ps=0u w=1e+06u l=350000u
X3 a_n925_n64# a_n995_n161# a_n797_n64# w_n1089_n100# sky130_fd_pr__pfet_01v8_lvt ad=0p pd=0u as=0p ps=0u w=1e+06u l=350000u
X4 a_n925_n64# a_n995_n161# a_n1053_n64# w_n1089_n100# sky130_fd_pr__pfet_01v8_lvt ad=0p pd=0u as=2.9e+11p ps=2.58e+06u w=1e+06u l=350000u
X5 a_n541_n64# a_n995_n161# a_n925_n64# w_n1089_n100# sky130_fd_pr__pfet_01v8_lvt ad=0p pd=0u as=0p ps=0u w=1e+06u l=350000u
.ends

.subckt p-leg DQ n_cal_ctrl[0] n_cal_ctrl[1] n_cal_ctrl[2] n_cal_ctrl[3] n_pu_ctrl
+ li_4_2169# VSUBS sky130_fd_sc_hd__fill_8_9/VGND sky130_fd_sc_hd__fill_8_8/VGND VDD
Xp-leg_fet_16_4 n_pu_ctrl VDD VDD VDD VDD VDD VDD VDD v_pullup VDD VDD VDD p-leg_fet_16
Xp-leg_fet_16_5 n_pu_ctrl VDD VDD VDD VDD VDD VDD VDD v_pullup VDD VDD VDD p-leg_fet_16
Xp-leg_fet_16_6 n_cal_ctrl[0] v_pullup v_pullup v_pullup v_pullup v_pullup v_pullup
+ v_pullup DQ v_pullup VDD v_pullup p-leg_fet_16
Xp-leg_fet_16_7 n_cal_ctrl[0] v_pullup v_pullup v_pullup v_pullup v_pullup v_pullup
+ v_pullup DQ v_pullup VDD v_pullup p-leg_fet_16
Xp-leg_polyres_0 DQ v_pullup p-leg_polyres
Xp-leg_fet_16_8 n_cal_ctrl[0] v_pullup v_pullup v_pullup v_pullup v_pullup v_pullup
+ v_pullup DQ v_pullup VDD v_pullup p-leg_fet_16
Xp-leg_6_0 DQ DQ DQ n_cal_ctrl[1] v_pullup VDD DQ p-leg_6
Xp-leg_6_1 DQ DQ DQ n_cal_ctrl[1] v_pullup VDD DQ p-leg_6
Xp-leg_6_2 DQ DQ DQ n_cal_ctrl[1] v_pullup VDD DQ p-leg_6
Xp-leg_6_3 DQ DQ DQ n_cal_ctrl[1] v_pullup VDD DQ p-leg_6
Xp-leg_6_4 DQ DQ DQ n_cal_ctrl[2] v_pullup VDD DQ p-leg_6
Xp-leg_6_6 v_pullup v_pullup v_pullup n_cal_ctrl[3] DQ VDD v_pullup p-leg_6
Xp-leg_6_5 DQ DQ DQ n_cal_ctrl[2] v_pullup VDD DQ p-leg_6
Xp-leg_fet_16_0 n_pu_ctrl VDD VDD VDD VDD VDD VDD VDD v_pullup VDD VDD VDD p-leg_fet_16
Xp-leg_fet_16_1 n_pu_ctrl VDD VDD VDD VDD VDD VDD VDD v_pullup VDD VDD VDD p-leg_fet_16
Xp-leg_fet_16_2 n_pu_ctrl VDD VDD VDD VDD VDD VDD VDD v_pullup VDD VDD VDD p-leg_fet_16
Xp-leg_fet_16_3 n_pu_ctrl VDD VDD VDD VDD VDD VDD VDD v_pullup VDD VDD VDD p-leg_fet_16
.ends

.subckt sky130_fd_sc_hd__clkbuf_8 A VGND VPWR X VNB VPB
X0 VPWR A a_110_47# VPB sky130_fd_pr__pfet_01v8_hvt ad=1.65e+12p pd=1.53e+07u as=2.8e+11p ps=2.56e+06u w=1e+06u l=150000u
X1 VPWR a_110_47# X VPB sky130_fd_pr__pfet_01v8_hvt ad=0p pd=0u as=1.12e+12p ps=1.024e+07u w=1e+06u l=150000u
X2 X a_110_47# VPWR VPB sky130_fd_pr__pfet_01v8_hvt ad=0p pd=0u as=0p ps=0u w=1e+06u l=150000u
X3 a_110_47# A VPWR VPB sky130_fd_pr__pfet_01v8_hvt ad=0p pd=0u as=0p ps=0u w=1e+06u l=150000u
X4 X a_110_47# VGND VNB sky130_fd_pr__nfet_01v8 ad=4.704e+11p pd=5.6e+06u as=6.951e+11p ps=8.35e+06u w=420000u l=150000u
X5 X a_110_47# VPWR VPB sky130_fd_pr__pfet_01v8_hvt ad=0p pd=0u as=0p ps=0u w=1e+06u l=150000u
X6 VGND a_110_47# X VNB sky130_fd_pr__nfet_01v8 ad=0p pd=0u as=0p ps=0u w=420000u l=150000u
X7 VPWR a_110_47# X VPB sky130_fd_pr__pfet_01v8_hvt ad=0p pd=0u as=0p ps=0u w=1e+06u l=150000u
X8 VGND A a_110_47# VNB sky130_fd_pr__nfet_01v8 ad=0p pd=0u as=1.176e+11p ps=1.4e+06u w=420000u l=150000u
X9 VGND a_110_47# X VNB sky130_fd_pr__nfet_01v8 ad=0p pd=0u as=0p ps=0u w=420000u l=150000u
X10 a_110_47# A VGND VNB sky130_fd_pr__nfet_01v8 ad=0p pd=0u as=0p ps=0u w=420000u l=150000u
X11 VPWR a_110_47# X VPB sky130_fd_pr__pfet_01v8_hvt ad=0p pd=0u as=0p ps=0u w=1e+06u l=150000u
X12 X a_110_47# VPWR VPB sky130_fd_pr__pfet_01v8_hvt ad=0p pd=0u as=0p ps=0u w=1e+06u l=150000u
X13 VGND a_110_47# X VNB sky130_fd_pr__nfet_01v8 ad=0p pd=0u as=0p ps=0u w=420000u l=150000u
X14 VGND a_110_47# X VNB sky130_fd_pr__nfet_01v8 ad=0p pd=0u as=0p ps=0u w=420000u l=150000u
X15 X a_110_47# VPWR VPB sky130_fd_pr__pfet_01v8_hvt ad=0p pd=0u as=0p ps=0u w=1e+06u l=150000u
X16 X a_110_47# VGND VNB sky130_fd_pr__nfet_01v8 ad=0p pd=0u as=0p ps=0u w=420000u l=150000u
X17 VPWR a_110_47# X VPB sky130_fd_pr__pfet_01v8_hvt ad=0p pd=0u as=0p ps=0u w=1e+06u l=150000u
X18 X a_110_47# VGND VNB sky130_fd_pr__nfet_01v8 ad=0p pd=0u as=0p ps=0u w=420000u l=150000u
X19 X a_110_47# VGND VNB sky130_fd_pr__nfet_01v8 ad=0p pd=0u as=0p ps=0u w=420000u l=150000u
.ends

.subckt sky130_fd_sc_hd__clkinv_4 A VGND VPWR Y VNB VPB
X0 Y A VPWR VPB sky130_fd_pr__pfet_01v8_hvt ad=8.4e+11p pd=7.68e+06u as=1.21e+12p ps=1.042e+07u w=1e+06u l=150000u
X1 VGND A Y VNB sky130_fd_pr__nfet_01v8 ad=4.221e+11p pd=4.53e+06u as=2.352e+11p ps=2.8e+06u w=420000u l=150000u
X2 VGND A Y VNB sky130_fd_pr__nfet_01v8 ad=0p pd=0u as=0p ps=0u w=420000u l=150000u
X3 VPWR A Y VPB sky130_fd_pr__pfet_01v8_hvt ad=0p pd=0u as=0p ps=0u w=1e+06u l=150000u
X4 VPWR A Y VPB sky130_fd_pr__pfet_01v8_hvt ad=0p pd=0u as=0p ps=0u w=1e+06u l=150000u
X5 Y A VGND VNB sky130_fd_pr__nfet_01v8 ad=0p pd=0u as=0p ps=0u w=420000u l=150000u
X6 Y A VPWR VPB sky130_fd_pr__pfet_01v8_hvt ad=0p pd=0u as=0p ps=0u w=1e+06u l=150000u
X7 Y A VGND VNB sky130_fd_pr__nfet_01v8 ad=0p pd=0u as=0p ps=0u w=420000u l=150000u
X8 Y A VPWR VPB sky130_fd_pr__pfet_01v8_hvt ad=0p pd=0u as=0p ps=0u w=1e+06u l=150000u
X9 VPWR A Y VPB sky130_fd_pr__pfet_01v8_hvt ad=0p pd=0u as=0p ps=0u w=1e+06u l=150000u
.ends

.subckt sky130_fd_sc_hd__clkinv_16 A VGND VPWR Y VNB VPB
X0 VGND A Y VNB sky130_fd_pr__nfet_01v8 ad=1.0605e+12p pd=1.261e+07u as=1.0059e+12p ps=1.151e+07u w=420000u l=150000u
X1 Y A VPWR VPB sky130_fd_pr__pfet_01v8_hvt ad=3.515e+12p pd=3.103e+07u as=3.655e+12p ps=3.331e+07u w=1e+06u l=150000u
X2 VPWR A Y VPB sky130_fd_pr__pfet_01v8_hvt ad=0p pd=0u as=0p ps=0u w=1e+06u l=150000u
X3 Y A VPWR VPB sky130_fd_pr__pfet_01v8_hvt ad=0p pd=0u as=0p ps=0u w=1e+06u l=150000u
X4 VGND A Y VNB sky130_fd_pr__nfet_01v8 ad=0p pd=0u as=0p ps=0u w=420000u l=150000u
X5 VPWR A Y VPB sky130_fd_pr__pfet_01v8_hvt ad=0p pd=0u as=0p ps=0u w=1e+06u l=150000u
X6 Y A VGND VNB sky130_fd_pr__nfet_01v8 ad=0p pd=0u as=0p ps=0u w=420000u l=150000u
X7 VGND A Y VNB sky130_fd_pr__nfet_01v8 ad=0p pd=0u as=0p ps=0u w=420000u l=150000u
X8 VPWR A Y VPB sky130_fd_pr__pfet_01v8_hvt ad=0p pd=0u as=0p ps=0u w=1e+06u l=150000u
X9 VPWR A Y VPB sky130_fd_pr__pfet_01v8_hvt ad=0p pd=0u as=0p ps=0u w=1e+06u l=150000u
X10 Y A VGND VNB sky130_fd_pr__nfet_01v8 ad=0p pd=0u as=0p ps=0u w=420000u l=150000u
X11 Y A VPWR VPB sky130_fd_pr__pfet_01v8_hvt ad=0p pd=0u as=0p ps=0u w=1e+06u l=150000u
X12 VPWR A Y VPB sky130_fd_pr__pfet_01v8_hvt ad=0p pd=0u as=0p ps=0u w=1e+06u l=150000u
X13 VGND A Y VNB sky130_fd_pr__nfet_01v8 ad=0p pd=0u as=0p ps=0u w=420000u l=150000u
X14 Y A VPWR VPB sky130_fd_pr__pfet_01v8_hvt ad=0p pd=0u as=0p ps=0u w=1e+06u l=150000u
X15 VPWR A Y VPB sky130_fd_pr__pfet_01v8_hvt ad=0p pd=0u as=0p ps=0u w=1e+06u l=150000u
X16 Y A VPWR VPB sky130_fd_pr__pfet_01v8_hvt ad=0p pd=0u as=0p ps=0u w=1e+06u l=150000u
X17 Y A VPWR VPB sky130_fd_pr__pfet_01v8_hvt ad=0p pd=0u as=0p ps=0u w=1e+06u l=150000u
X18 Y A VGND VNB sky130_fd_pr__nfet_01v8 ad=0p pd=0u as=0p ps=0u w=420000u l=150000u
X19 VGND A Y VNB sky130_fd_pr__nfet_01v8 ad=0p pd=0u as=0p ps=0u w=420000u l=150000u
X20 Y A VGND VNB sky130_fd_pr__nfet_01v8 ad=0p pd=0u as=0p ps=0u w=420000u l=150000u
X21 VGND A Y VNB sky130_fd_pr__nfet_01v8 ad=0p pd=0u as=0p ps=0u w=420000u l=150000u
X22 Y A VPWR VPB sky130_fd_pr__pfet_01v8_hvt ad=0p pd=0u as=0p ps=0u w=1e+06u l=150000u
X23 VPWR A Y VPB sky130_fd_pr__pfet_01v8_hvt ad=0p pd=0u as=0p ps=0u w=1e+06u l=150000u
X24 Y A VPWR VPB sky130_fd_pr__pfet_01v8_hvt ad=0p pd=0u as=0p ps=0u w=1e+06u l=150000u
X25 Y A VPWR VPB sky130_fd_pr__pfet_01v8_hvt ad=0p pd=0u as=0p ps=0u w=1e+06u l=150000u
X26 VPWR A Y VPB sky130_fd_pr__pfet_01v8_hvt ad=0p pd=0u as=0p ps=0u w=1e+06u l=150000u
X27 Y A VGND VNB sky130_fd_pr__nfet_01v8 ad=0p pd=0u as=0p ps=0u w=420000u l=150000u
X28 Y A VPWR VPB sky130_fd_pr__pfet_01v8_hvt ad=0p pd=0u as=0p ps=0u w=1e+06u l=150000u
X29 VPWR A Y VPB sky130_fd_pr__pfet_01v8_hvt ad=0p pd=0u as=0p ps=0u w=1e+06u l=150000u
X30 VPWR A Y VPB sky130_fd_pr__pfet_01v8_hvt ad=0p pd=0u as=0p ps=0u w=1e+06u l=150000u
X31 Y A VGND VNB sky130_fd_pr__nfet_01v8 ad=0p pd=0u as=0p ps=0u w=420000u l=150000u
X32 VGND A Y VNB sky130_fd_pr__nfet_01v8 ad=0p pd=0u as=0p ps=0u w=420000u l=150000u
X33 VPWR A Y VPB sky130_fd_pr__pfet_01v8_hvt ad=0p pd=0u as=0p ps=0u w=1e+06u l=150000u
X34 Y A VGND VNB sky130_fd_pr__nfet_01v8 ad=0p pd=0u as=0p ps=0u w=420000u l=150000u
X35 Y A VPWR VPB sky130_fd_pr__pfet_01v8_hvt ad=0p pd=0u as=0p ps=0u w=1e+06u l=150000u
X36 Y A VGND VNB sky130_fd_pr__nfet_01v8 ad=0p pd=0u as=0p ps=0u w=420000u l=150000u
X37 VPWR A Y VPB sky130_fd_pr__pfet_01v8_hvt ad=0p pd=0u as=0p ps=0u w=1e+06u l=150000u
X38 Y A VPWR VPB sky130_fd_pr__pfet_01v8_hvt ad=0p pd=0u as=0p ps=0u w=1e+06u l=150000u
X39 VGND A Y VNB sky130_fd_pr__nfet_01v8 ad=0p pd=0u as=0p ps=0u w=420000u l=150000u
.ends

.subckt sky130_fd_sc_hd__clkbuf_16 A VGND VPWR X VNB VPB
X0 VPWR A a_110_47# VPB sky130_fd_pr__pfet_01v8_hvt ad=3.045e+12p pd=2.809e+07u as=5.6e+11p ps=5.12e+06u w=1e+06u l=150000u
X1 VPWR a_110_47# X VPB sky130_fd_pr__pfet_01v8_hvt ad=0p pd=0u as=2.24e+12p ps=2.048e+07u w=1e+06u l=150000u
X2 X a_110_47# VPWR VPB sky130_fd_pr__pfet_01v8_hvt ad=0p pd=0u as=0p ps=0u w=1e+06u l=150000u
X3 X a_110_47# VPWR VPB sky130_fd_pr__pfet_01v8_hvt ad=0p pd=0u as=0p ps=0u w=1e+06u l=150000u
X4 VPWR a_110_47# X VPB sky130_fd_pr__pfet_01v8_hvt ad=0p pd=0u as=0p ps=0u w=1e+06u l=150000u
X5 VPWR a_110_47# X VPB sky130_fd_pr__pfet_01v8_hvt ad=0p pd=0u as=0p ps=0u w=1e+06u l=150000u
X6 a_110_47# A VPWR VPB sky130_fd_pr__pfet_01v8_hvt ad=0p pd=0u as=0p ps=0u w=1e+06u l=150000u
X7 a_110_47# A VGND VNB sky130_fd_pr__nfet_01v8 ad=2.352e+11p pd=2.8e+06u as=1.2789e+12p ps=1.533e+07u w=420000u l=150000u
X8 VGND a_110_47# X VNB sky130_fd_pr__nfet_01v8 ad=0p pd=0u as=9.408e+11p ps=1.12e+07u w=420000u l=150000u
X9 X a_110_47# VGND VNB sky130_fd_pr__nfet_01v8 ad=0p pd=0u as=0p ps=0u w=420000u l=150000u
X10 VGND a_110_47# X VNB sky130_fd_pr__nfet_01v8 ad=0p pd=0u as=0p ps=0u w=420000u l=150000u
X11 a_110_47# A VPWR VPB sky130_fd_pr__pfet_01v8_hvt ad=0p pd=0u as=0p ps=0u w=1e+06u l=150000u
X12 VGND A a_110_47# VNB sky130_fd_pr__nfet_01v8 ad=0p pd=0u as=0p ps=0u w=420000u l=150000u
X13 VGND a_110_47# X VNB sky130_fd_pr__nfet_01v8 ad=0p pd=0u as=0p ps=0u w=420000u l=150000u
X14 VPWR a_110_47# X VPB sky130_fd_pr__pfet_01v8_hvt ad=0p pd=0u as=0p ps=0u w=1e+06u l=150000u
X15 X a_110_47# VPWR VPB sky130_fd_pr__pfet_01v8_hvt ad=0p pd=0u as=0p ps=0u w=1e+06u l=150000u
X16 VGND A a_110_47# VNB sky130_fd_pr__nfet_01v8 ad=0p pd=0u as=0p ps=0u w=420000u l=150000u
X17 VGND a_110_47# X VNB sky130_fd_pr__nfet_01v8 ad=0p pd=0u as=0p ps=0u w=420000u l=150000u
X18 VPWR a_110_47# X VPB sky130_fd_pr__pfet_01v8_hvt ad=0p pd=0u as=0p ps=0u w=1e+06u l=150000u
X19 VGND a_110_47# X VNB sky130_fd_pr__nfet_01v8 ad=0p pd=0u as=0p ps=0u w=420000u l=150000u
X20 X a_110_47# VPWR VPB sky130_fd_pr__pfet_01v8_hvt ad=0p pd=0u as=0p ps=0u w=1e+06u l=150000u
X21 a_110_47# A VGND VNB sky130_fd_pr__nfet_01v8 ad=0p pd=0u as=0p ps=0u w=420000u l=150000u
X22 VPWR A a_110_47# VPB sky130_fd_pr__pfet_01v8_hvt ad=0p pd=0u as=0p ps=0u w=1e+06u l=150000u
X23 VPWR a_110_47# X VPB sky130_fd_pr__pfet_01v8_hvt ad=0p pd=0u as=0p ps=0u w=1e+06u l=150000u
X24 VPWR a_110_47# X VPB sky130_fd_pr__pfet_01v8_hvt ad=0p pd=0u as=0p ps=0u w=1e+06u l=150000u
X25 VGND a_110_47# X VNB sky130_fd_pr__nfet_01v8 ad=0p pd=0u as=0p ps=0u w=420000u l=150000u